CHEMBL7946
     RDKit          2D

 19 21  0  0  0  0  0  0  0  0999 V2000
    6.2542   -3.3125    0.0000 N   0  0  0  0  0  0  0  0  0  0  0  0
    5.5417   -3.7292    0.0000 C   0  0  0  0  0  0  0  0  0  0  0  0
    4.8250   -2.4917    0.0000 C   0  0  0  0  0  0  0  0  0  0  0  0
    4.8250   -3.3167    0.0000 C   0  0  0  0  0  0  0  0  0  0  0  0
    6.2500   -2.4792    0.0000 C   0  0  0  0  0  0  0  0  0  0  0  0
    5.5292   -2.0750    0.0000 C   0  0  0  0  0  0  0  0  0  0  0  0
    4.1042   -3.7292    0.0000 C   0  0  0  0  0  0  0  0  0  0  0  0
    6.9542   -2.0667    0.0000 C   0  0  0  0  0  0  0  0  0  0  0  0
    4.1042   -2.0792    0.0000 C   0  0  0  0  0  0  0  0  0  0  0  0
    5.5417   -4.5542    0.0000 N   0  0  0  0  0  0  0  0  0  0  0  0
    6.9542   -1.2417    0.0000 C   0  0  0  0  0  0  0  0  0  0  0  0
    7.6750   -2.4792    0.0000 C   0  0  0  0  0  0  0  0  0  0  0  0
    3.3917   -2.4917    0.0000 C   0  0  0  0  0  0  0  0  0  0  0  0
    3.3917   -3.3167    0.0000 C   0  0  0  0  0  0  0  0  0  0  0  0
    8.3792   -1.2375    0.0000 C   0  0  0  0  0  0  0  0  0  0  0  0
    8.3875   -2.0625    0.0000 C   0  0  0  0  0  0  0  0  0  0  0  0
    7.6625   -0.8292    0.0000 C   0  0  0  0  0  0  0  0  0  0  0  0
    2.6792   -2.0792    0.0000 F   0  0  0  0  0  0  0  0  0  0  0  0
    9.0917   -0.8167    0.0000 F   0  0  0  0  0  0  0  0  0  0  0  0
  2  1  2  0
  3  6  1  0
  4  2  1  0
  5  1  1  0
  6  5  1  0
  7  4  2  0
  8  5  1  0
  9  3  2  0
 10  2  1  0
 11  8  2  0
 12  8  1  0
 13  9  1  0
 14  7  1  0
 15 16  1  0
 16 12  2  0
 17 11  1  0
 18 13  1  0
 19 15  1  0
  4  3  1  0
 15 17  2  0
 14 13  2  0
M  END
>  <chembl_id>  (1) 
CHEMBL7946

$$$$
CHEMBL12053
     RDKit          2D

 13 15  0  0  0  0  0  0  0  0999 V2000
   -1.0208    0.5333    0.0000 C   0  0  0  0  0  0  0  0  0  0  0  0
   -1.5375   -0.3667    0.0000 N   0  0  0  0  0  0  0  0  0  0  0  0
   -1.0208   -0.0667    0.0000 C   0  0  0  0  0  0  0  0  0  0  0  0
   -2.0583    0.5250    0.0000 C   0  0  0  0  0  0  0  0  0  0  0  0
   -2.0583   -0.0750    0.0000 C   0  0  0  0  0  0  0  0  0  0  0  0
   -0.5000    0.8333    0.0000 C   0  0  0  0  0  0  0  0  0  0  0  0
    0.0167   -0.0750    0.0000 N   0  0  0  0  0  0  0  0  0  0  0  0
    0.0167    0.5250    0.0000 C   0  0  0  0  0  0  0  0  0  0  0  0
   -0.5083   -0.3750    0.0000 C   0  0  0  0  0  0  0  0  0  0  0  0
   -2.5833    0.8250    0.0000 C   0  0  0  0  0  0  0  0  0  0  0  0
   -2.5833   -0.3750    0.0000 C   0  0  0  0  0  0  0  0  0  0  0  0
   -3.0958    0.5250    0.0000 C   0  0  0  0  0  0  0  0  0  0  0  0
   -3.0958   -0.0750    0.0000 C   0  0  0  0  0  0  0  0  0  0  0  0
  2  3  1  0
  3  1  2  0
  4  1  1  0
  5  4  2  0
  6  1  1  0
  7  8  1  0
  8  6  2  0
  9  3  1  0
 10  4  1  0
 11  5  1  0
 12 10  2  0
 13 12  1  0
  2  5  1  0
  7  9  1  0
 13 11  2  0
M  END
>  <chembl_id>  (2) 
CHEMBL12053

$$$$
CHEMBL32644
     RDKit          2D

 28 30  0  0  0  0  0  0  0  0999 V2000
    5.8792    1.0583    0.0000 C   0  0  0  0  0  0  0  0  0  0  0  0
    5.1167    1.3958    0.0000 N   0  0  0  0  0  0  0  0  0  0  0  0
    6.5417    1.5458    0.0000 C   0  0  0  0  0  0  0  0  0  0  0  0
    7.3542    1.3750    0.0000 S   0  0  0  0  0  0  0  0  0  0  0  0
   -3.3458   -1.8667    0.0000 S   0  0  0  0  0  0  0  0  0  0  0  0
   -4.1458   -2.0667    0.0000 S   0  0  0  0  0  0  0  0  0  0  0  0
    0.1917   -0.1292    0.0000 C   0  0  0  0  0  0  0  0  0  0  0  0
    6.4542    2.3625    0.0000 C   0  0  0  0  0  0  0  0  0  0  0  0
    7.7625    2.0875    0.0000 C   0  0  0  0  0  0  0  0  0  0  0  0
    7.2167    2.7083    0.0000 C   0  0  0  0  0  0  0  0  0  0  0  0
    0.0667    0.6875    0.0000 O   0  0  0  0  0  0  0  0  0  0  0  0
    4.4417    0.9125    0.0000 C   0  0  0  0  0  0  0  0  0  0  0  0
    5.9625    0.2375    0.0000 N   0  0  0  0  0  0  0  0  0  0  0  0
    0.9542   -0.4417    0.0000 N   0  0  0  0  0  0  0  0  0  0  0  0
   -3.2958   -1.0417    0.0000 C   0  0  0  0  0  0  0  0  0  0  0  0
    3.1042   -0.0542    0.0000 C   0  0  0  0  0  0  0  0  0  0  0  0
    4.5292    0.0875    0.0000 C   0  0  0  0  0  0  0  0  0  0  0  0
    3.6792    1.2458    0.0000 C   0  0  0  0  0  0  0  0  0  0  0  0
    3.8625   -0.3917    0.0000 C   0  0  0  0  0  0  0  0  0  0  0  0
    3.0167    0.7583    0.0000 C   0  0  0  0  0  0  0  0  0  0  0  0
    1.6792   -0.0417    0.0000 C   0  0  0  0  0  0  0  0  0  0  0  0
   -4.0625   -0.7375    0.0000 C   0  0  0  0  0  0  0  0  0  0  0  0
   -4.5958   -1.3667    0.0000 C   0  0  0  0  0  0  0  0  0  0  0  0
   -0.4583   -0.6417    0.0000 C   0  0  0  0  0  0  0  0  0  0  0  0
    2.3792   -0.4625    0.0000 C   0  0  0  0  0  0  0  0  0  0  0  0
   -2.6458   -0.5375    0.0000 C   0  0  0  0  0  0  0  0  0  0  0  0
   -1.2333   -0.3292    0.0000 C   0  0  0  0  0  0  0  0  0  0  0  0
   -1.8750   -0.8417    0.0000 C   0  0  0  0  0  0  0  0  0  0  0  0
  2  1  1  0
  3  1  1  0
  4  3  1  0
  5 15  1  0
  6  5  1  0
  7 14  1  0
  8  3  2  0
  9  4  1  0
 10  8  1  0
 11  7  2  0
 12  2  1  0
 13  1  2  0
 14 21  1  0
 15 26  1  0
 16 20  1  0
 17 12  2  0
 18 12  1  0
 19 17  1  0
 20 18  2  0
 21 25  1  0
 22 15  1  0
 23 22  1  0
 24  7  1  0
 25 16  1  0
 26 28  1  0
 27 24  1  0
 28 27  1  0
  9 10  2  0
 16 19  2  0
 23  6  1  0
M  END
>  <chembl_id>  (3) 
CHEMBL32644

$$$$
CHEMBL39580
     RDKit          2D

 32 35  0  0  1  0  0  0  0  0999 V2000
    5.4542   -6.3667    0.0000 C   0  0  0  0  0  0  0  0  0  0  0  0
    4.7042   -6.7167    0.0000 S   0  0  0  0  0  0  0  0  0  0  0  0
    4.1417   -6.1042    0.0000 C   0  0  0  0  0  0  0  0  0  0  0  0
    5.3750   -5.5542    0.0000 N   0  0  0  0  0  0  0  0  0  0  0  0
    9.0542   -6.7542    0.0000 C   0  0  0  0  0  0  0  0  0  0  0  0
    6.1875   -6.7792    0.0000 N   0  0  0  0  0  0  0  0  0  0  0  0
    6.9000   -6.3667    0.0000 C   0  0  0  0  0  0  0  0  0  0  0  0
   11.8875   -5.0667    0.0000 C   0  0  0  0  0  0  0  0  0  0  0  0
    9.7667   -6.3292    0.0000 N   0  0  0  0  0  0  0  0  0  0  0  0
   11.1792   -5.4875    0.0000 N   0  0  0  0  0  0  0  0  0  0  0  0
    8.3375   -6.3542    0.0000 C   0  0  0  0  0  0  0  0  0  0  0  0
    4.5625   -5.3917    0.0000 N   0  0  0  0  0  0  0  0  0  0  0  0
    7.6167   -6.7667    0.0000 N   0  0  0  0  0  0  0  0  0  0  0  0
   12.6042   -5.4750    0.0000 N   0  0  0  0  0  0  0  0  0  0  0  0
   11.8750   -4.2417    0.0000 N   0  0  0  0  0  0  0  0  0  0  0  0
    3.3250   -6.2000    0.0000 S   0  0  0  0  0  0  0  0  0  0  0  0
    8.3292   -5.5292    0.0000 C   0  0  0  0  0  0  0  0  0  0  0  0
    9.7417   -5.5042    0.0000 C   0  0  0  0  0  0  0  0  0  0  0  0
   10.4792   -6.7292    0.0000 C   0  0  0  0  0  0  0  0  0  0  0  0
   11.1875   -6.3125    0.0000 C   0  0  0  0  0  0  0  0  0  0  0  0
   10.4542   -5.0875    0.0000 C   0  0  0  0  0  0  0  0  0  0  0  0
    9.0667   -7.5875    0.0000 O   0  0  0  0  0  0  0  0  0  0  0  0
    6.8917   -5.5375    0.0000 O   0  0  0  0  0  0  0  0  0  0  0  0
    8.9167   -4.9375    0.0000 C   0  0  0  0  0  0  0  0  0  0  0  0
   13.3042   -4.2292    0.0000 C   0  0  0  0  0  0  0  0  0  0  0  0
   12.5792   -3.8250    0.0000 C   0  0  0  0  0  0  0  0  0  0  0  0
   13.3125   -5.0542    0.0000 C   0  0  0  0  0  0  0  0  0  0  0  0
    9.7167   -5.1417    0.0000 C   0  0  0  0  0  0  0  0  0  0  0  0
    8.6917   -4.1292    0.0000 C   0  0  0  0  0  0  0  0  0  0  0  0
    9.2750   -3.5417    0.0000 C   0  0  0  0  0  0  0  0  0  0  0  0
   10.3042   -4.5625    0.0000 C   0  0  0  0  0  0  0  0  0  0  0  0
   10.0792   -3.7542    0.0000 C   0  0  0  0  0  0  0  0  0  0  0  0
  2  1  1  0
  3  2  1  0
  4  1  2  0
  5 11  1  0
  6  1  1  0
  7  6  1  0
  8 10  1  0
  9  5  1  0
 10 20  1  0
 11 13  1  0
 12  4  1  0
 13  7  1  0
 14  8  2  0
 15  8  1  0
 16  3  1  0
 11 17  1  1
 18  9  1  0
 19  9  1  0
 20 19  1  0
 21 18  1  0
 22  5  2  0
 23  7  2  0
 24 17  1  0
 25 26  1  0
 26 15  2  0
 27 14  1  0
 28 24  2  0
 29 24  1  0
 30 29  2  0
 31 28  1  0
 32 30  1  0
  3 12  2  0
 21 10  1  0
 31 32  2  0
 27 25  2  0
M  END
>  <chembl_id>  (4) 
CHEMBL39580

$$$$
CHEMBL53994
     RDKit          2D

 38 39  0  0  0  0  0  0  0  0999 V2000
   12.4417   -9.7500    0.0000 C   0  0  0  0  0  0  0  0  0  0  0  0
   11.7292  -10.1625    0.0000 N   0  0  0  0  0  0  0  0  0  0  0  0
   11.0167   -9.7500    0.0000 C   0  0  0  0  0  0  0  0  0  0  0  0
   13.0167  -10.3417    0.0000 C   0  0  0  0  0  0  0  0  0  0  0  0
   12.6625   -8.9542    0.0000 C   0  0  0  0  0  0  0  0  0  0  0  0
    8.8667  -10.9792    0.0000 N   0  0  0  0  0  0  0  0  0  0  0  0
    8.1542  -11.3917    0.0000 C   0  0  0  0  0  0  0  0  0  0  0  0
   10.3042  -10.1542    0.0000 N   0  0  0  0  0  0  0  0  0  0  0  0
    8.8750  -10.1542    0.0000 C   0  0  0  0  0  0  0  0  0  0  0  0
   11.0125   -8.9375    0.0000 O   0  0  0  0  0  0  0  0  0  0  0  0
    9.5875   -9.7417    0.0000 C   0  0  0  0  0  0  0  0  0  0  0  0
    8.1542  -12.2167    0.0000 O   0  0  0  0  0  0  0  0  0  0  0  0
    8.1542   -9.7417    0.0000 C   0  0  0  0  0  0  0  0  0  0  0  0
   12.7917  -11.1375    0.0000 C   0  0  0  0  0  0  0  0  0  0  0  0
   12.0792   -8.3667    0.0000 C   0  0  0  0  0  0  0  0  0  0  0  0
   13.4542   -8.7542    0.0000 C   0  0  0  0  0  0  0  0  0  0  0  0
   13.8167  -10.1375    0.0000 C   0  0  0  0  0  0  0  0  0  0  0  0
   14.0417   -9.3417    0.0000 C   0  0  0  0  0  0  0  0  0  0  0  0
    7.4417  -10.9792    0.0000 C   0  0  0  0  0  0  0  0  0  0  0  0
    8.1542   -8.9167    0.0000 C   0  0  0  0  0  0  0  0  0  0  0  0
    7.4417  -10.1542    0.0000 C   0  0  0  0  0  0  0  0  0  0  0  0
   13.3667  -11.7292    0.0000 C   0  0  0  0  0  0  0  0  0  0  0  0
   11.9917  -11.3375    0.0000 C   0  0  0  0  0  0  0  0  0  0  0  0
   11.2792   -8.5792    0.0000 C   0  0  0  0  0  0  0  0  0  0  0  0
   12.3000   -7.5792    0.0000 C   0  0  0  0  0  0  0  0  0  0  0  0
    6.7292  -11.3875    0.0000 C   0  0  0  0  0  0  0  0  0  0  0  0
    1.0167  -11.3667    0.0000 C   0  0  0  0  0  0  0  0  0  0  0  0
    1.7292  -10.9542    0.0000 C   0  0  0  0  0  0  0  0  0  0  0  0
    4.5917  -10.9667    0.0000 C   0  0  0  0  0  0  0  0  0  0  0  0
    3.8792  -11.3792    0.0000 C   0  0  0  0  0  0  0  0  0  0  0  0
    3.1625  -10.9625    0.0000 C   0  0  0  0  0  0  0  0  0  0  0  0
    2.4417  -11.3667    0.0000 C   0  0  0  0  0  0  0  0  0  0  0  0
    6.0167  -10.9750    0.0000 C   0  0  0  0  0  0  0  0  0  0  0  0
    5.3042  -11.3792    0.0000 C   0  0  0  0  0  0  0  0  0  0  0  0
    0.3042  -10.9542    0.0000 C   0  0  0  0  0  0  0  0  0  0  0  0
    6.7375   -9.7417    0.0000 C   0  0  0  0  0  0  0  0  0  0  0  0
    7.4417   -8.5042    0.0000 C   0  0  0  0  0  0  0  0  0  0  0  0
    6.7375   -8.9167    0.0000 C   0  0  0  0  0  0  0  0  0  0  0  0
  2  1  1  0
  3  2  1  0
  4  1  2  0
  5  1  1  0
  6  9  1  0
  7  6  1  0
  8  3  1  0
  9 11  1  0
 10  3  2  0
 11  8  1  0
 12  7  2  0
 13  9  1  0
 14  4  1  0
 15  5  1  0
 16  5  2  0
 17  4  1  0
 18 16  1  0
 19  7  1  0
 20 13  2  0
 21 13  1  0
 22 14  1  0
 23 14  1  0
 24 15  1  0
 25 15  1  0
 26 19  1  0
 27 28  1  0
 28 32  1  0
 29 34  1  0
 30 29  1  0
 31 30  1  0
 32 31  1  0
 33 26  1  0
 34 33  1  0
 35 27  1  0
 36 21  2  0
 37 20  1  0
 38 36  1  0
 18 17  2  0
 38 37  2  0
M  END
>  <chembl_id>  (5) 
CHEMBL53994

$$$$
CHEMBL63535
     RDKit          2D

 40 41  0  0  1  0  0  0  0  0999 V2000
    2.6667   -5.9917    0.0000 C   0  0  0  0  0  0  0  0  0  0  0  0
    3.0292   -5.2917    0.0000 N   0  0  0  0  0  0  0  0  0  0  0  0
    7.4542   -7.5792    0.0000 N   0  0  0  0  0  0  0  0  0  0  0  0
    5.9542   -8.6542    0.0000 C   0  0  0  0  0  0  0  0  0  0  0  0
    7.5875   -6.8000    0.0000 C   0  0  0  0  0  0  0  0  0  0  0  0
    5.2917   -8.1625    0.0000 N   0  0  0  0  0  0  0  0  0  0  0  0
    2.5417   -6.7792    0.0000 C   0  0  0  0  0  0  0  0  0  0  0  0
    2.6625   -7.5542    0.0000 N   0  0  0  0  0  0  0  0  0  0  0  0
    7.4667   -6.0167    0.0000 C   0  0  0  0  0  0  0  0  0  0  0  0
    7.1125   -5.3125    0.0000 N   0  0  0  0  0  0  0  0  0  0  0  0
    4.2917   -4.3792    0.0000 C   0  0  0  0  0  0  0  0  0  0  0  0
    3.5917   -4.7417    0.0000 C   0  0  0  0  0  0  0  0  0  0  0  0
    3.0167   -8.2625    0.0000 C   0  0  0  0  0  0  0  0  0  0  0  0
    4.6167   -8.6375    0.0000 C   0  0  0  0  0  0  0  0  0  0  0  0
    5.6875   -9.4375    0.0000 S   0  0  0  0  0  0  0  0  0  0  0  0
    5.0792   -4.2667    0.0000 N   0  0  0  0  0  0  0  0  0  0  0  0
    8.2792   -5.7250    0.0000 C   0  0  0  0  0  0  0  0  0  0  0  0
    3.7750   -8.6750    0.0000 C   0  0  0  0  0  0  0  0  0  0  0  0
    4.1042   -1.9417    0.0000 C   0  0  0  0  0  0  0  0  0  0  0  0
    6.5542   -4.7542    0.0000 C   0  0  0  0  0  0  0  0  0  0  0  0
    4.8625   -9.4250    0.0000 C   0  0  0  0  0  0  0  0  0  0  0  0
    9.0042   -6.0542    0.0000 C   0  0  0  0  0  0  0  0  0  0  0  0
    1.9167   -5.7500    0.0000 O   0  0  0  0  0  0  0  0  0  0  0  0
    4.5625   -2.5792    0.0000 N   0  0  0  0  0  0  0  0  0  0  0  0
    8.3750   -6.8000    0.0000 O   0  0  0  0  0  0  0  0  0  0  0  0
    4.0542   -3.6292    0.0000 O   0  0  0  0  0  0  0  0  0  0  0  0
    2.3792   -8.7250    0.0000 O   0  0  0  0  0  0  0  0  0  0  0  0
    5.8542   -4.3917    0.0000 C   0  0  0  0  0  0  0  0  0  0  0  0
    7.0250   -4.1167    0.0000 O   0  0  0  0  0  0  0  0  0  0  0  0
    9.2542   -6.7667    0.0000 O   0  0  0  0  0  0  0  0  0  0  0  0
    3.3167   -2.0167    0.0000 N   0  0  0  0  0  0  0  0  0  0  0  0
    1.7542   -6.7750    0.0000 C   0  0  0  0  0  0  0  0  0  0  0  0
    4.4250   -1.2250    0.0000 N   0  0  0  0  0  0  0  0  0  0  0  0
    2.3917   -4.8292    0.0000 C   0  0  0  0  0  0  0  0  0  0  0  0
    9.5292   -5.3042    0.0000 O   0  0  0  0  0  0  0  0  0  0  0  0
    3.1292   -4.1000    0.0000 C   0  0  0  0  0  0  0  0  0  0  0  0
    2.9917   -2.7417    0.0000 C   0  0  0  0  0  0  0  0  0  0  0  0
    1.3542   -6.0875    0.0000 C   0  0  0  0  0  0  0  0  0  0  0  0
    1.3542   -7.4542    0.0000 C   0  0  0  0  0  0  0  0  0  0  0  0
    3.4542   -3.3792    0.0000 C   0  0  0  0  0  0  0  0  0  0  0  0
  2  1  1  0
  3  4  1  0
  4  6  2  0
  5  3  1  0
  6 14  1  0
  7  1  1  0
  8  7  1  0
  9 10  1  0
 10 20  1  0
 11 12  1  0
 12  2  1  0
 13  8  1  0
 14 18  1  0
 15 21  1  0
 16 11  1  0
  9 17  1  1
 18 13  1  0
 19 31  2  0
 20 28  1  0
 21 14  2  0
 22 17  1  0
 23  1  2  0
 24 19  1  0
 25  5  2  0
 26 11  2  0
 27 13  2  0
 28 16  1  0
 29 20  2  0
 30 22  2  0
 31 37  1  0
  7 32  1  1
 33 19  1  0
 34  2  1  0
 35 22  1  0
 12 36  1  1
 37 40  1  0
 38 32  1  0
 39 32  1  0
 40 36  1  0
 15  4  1  0
  9  5  1  0
M  END
>  <chembl_id>  (6) 
CHEMBL63535

$$$$
CHEMBL71220
     RDKit          2D

 54 58  0  0  0  0  0  0  0  0999 V2000
    6.8667   -8.2500    0.0000 S   0  0  0  0  0  0  0  0  0  0  0  0
    3.0625   -6.9167    0.0000 N   0  0  0  0  0  0  0  0  0  0  0  0
    3.7750   -6.4042    0.0000 C   0  0  0  0  0  0  0  0  0  0  0  0
    2.6292   -5.5667    0.0000 N   0  0  0  0  0  0  0  0  0  0  0  0
    3.5042   -5.5667    0.0000 C   0  0  0  0  0  0  0  0  0  0  0  0
    2.3542   -6.4000    0.0000 C   0  0  0  0  0  0  0  0  0  0  0  0
    7.6292   -7.8042    0.0000 N   0  0  0  0  0  0  0  0  0  0  0  0
    6.8667   -9.1292    0.0000 C   0  0  0  0  0  0  0  0  0  0  0  0
    3.0625   -7.8000    0.0000 C   0  0  0  0  0  0  0  0  0  0  0  0
    4.6167   -6.6792    0.0000 C   0  0  0  0  0  0  0  0  0  0  0  0
    8.4000   -8.2500    0.0000 C   0  0  0  0  0  0  0  0  0  0  0  0
    3.8250   -8.2417    0.0000 C   0  0  0  0  0  0  0  0  0  0  0  0
    6.1042   -9.5667    0.0000 C   0  0  0  0  0  0  0  0  0  0  0  0
    5.3417   -9.1292    0.0000 C   0  0  0  0  0  0  0  0  0  0  0  0
    7.0542   -3.4667    0.0000 C   0  0  0  0  0  0  0  0  0  0  0  0
    7.2417   -4.3292    0.0000 C   0  0  0  0  0  0  0  0  0  0  0  0
    3.8167   -9.1292    0.0000 C   0  0  0  0  0  0  0  0  0  0  0  0
    6.1000   -8.6875    0.0000 O   0  0  0  0  0  0  0  0  0  0  0  0
    6.2417   -7.6250    0.0000 O   0  0  0  0  0  0  0  0  0  0  0  0
    4.5792   -9.5667    0.0000 C   0  0  0  0  0  0  0  0  0  0  0  0
    5.2750   -6.0917    0.0000 O   0  0  0  0  0  0  0  0  0  0  0  0
    6.5875   -4.9167    0.0000 C   0  0  0  0  0  0  0  0  0  0  0  0
    4.5792   -7.8042    0.0000 C   0  0  0  0  0  0  0  0  0  0  0  0
    8.4000   -9.1292    0.0000 O   0  0  0  0  0  0  0  0  0  0  0  0
    4.7667   -7.3000    0.0000 O   0  0  0  0  0  0  0  0  0  0  0  0
    5.3417   -8.2417    0.0000 C   0  0  0  0  0  0  0  0  0  0  0  0
    6.2125   -3.2167    0.0000 O   0  0  0  0  0  0  0  0  0  0  0  0
    7.7000   -2.8542    0.0000 C   0  0  0  0  0  0  0  0  0  0  0  0
    9.1667   -7.8042    0.0000 O   0  0  0  0  0  0  0  0  0  0  0  0
    3.0500   -9.5625    0.0000 F   0  0  0  0  0  0  0  0  0  0  0  0
    4.0292   -4.8542    0.0000 C   0  0  0  0  0  0  0  0  0  0  0  0
    6.7667   -5.7792    0.0000 C   0  0  0  0  0  0  0  0  0  0  0  0
    6.1125   -6.3667    0.0000 C   0  0  0  0  0  0  0  0  0  0  0  0
    1.5125   -6.6667    0.0000 C   0  0  0  0  0  0  0  0  0  0  0  0
    7.6292   -9.5667    0.0000 C   0  0  0  0  0  0  0  0  0  0  0  0
    8.0875   -4.6042    0.0000 C   0  0  0  0  0  0  0  0  0  0  0  0
    9.9292   -8.2417    0.0000 C   0  0  0  0  0  0  0  0  0  0  0  0
    6.1042  -10.4542    0.0000 C   0  0  0  0  0  0  0  0  0  0  0  0
    8.2667   -5.4667    0.0000 C   0  0  0  0  0  0  0  0  0  0  0  0
    8.5417   -3.1167    0.0000 C   0  0  0  0  0  0  0  0  0  0  0  0
    7.4875   -2.0042    0.0000 C   0  0  0  0  0  0  0  0  0  0  0  0
    7.6042   -6.0542    0.0000 C   0  0  0  0  0  0  0  0  0  0  0  0
   10.6917   -7.8042    0.0000 C   0  0  0  0  0  0  0  0  0  0  0  0
   11.4542   -8.2417    0.0000 C   0  0  0  0  0  0  0  0  0  0  0  0
    0.8542   -6.0750    0.0000 C   0  0  0  0  0  0  0  0  0  0  0  0
    3.6667   -4.0417    0.0000 C   0  0  0  0  0  0  0  0  0  0  0  0
    6.8667  -10.9000    0.0000 C   0  0  0  0  0  0  0  0  0  0  0  0
    7.6375  -10.4542    0.0000 C   0  0  0  0  0  0  0  0  0  0  0  0
   11.4625   -9.1292    0.0000 C   0  0  0  0  0  0  0  0  0  0  0  0
   12.2250   -7.8042    0.0000 C   0  0  0  0  0  0  0  0  0  0  0  0
    0.0167   -6.3417    0.0000 C   0  0  0  0  0  0  0  0  0  0  0  0
    8.1250   -1.4000    0.0000 C   0  0  0  0  0  0  0  0  0  0  0  0
    9.1792   -2.5042    0.0000 C   0  0  0  0  0  0  0  0  0  0  0  0
    8.9750   -1.6417    0.0000 C   0  0  0  0  0  0  0  0  0  0  0  0
  2  9  1  0
  3  2  1  0
  4  6  2  0
  5  3  2  0
  6  2  1  0
  7  1  1  0
  8  1  1  0
  9 12  1  0
 10  3  1  0
 11  7  1  0
 12 23  2  0
 13  8  2  0
 14 13  1  0
 15 16  1  0
 16 22  2  0
 17 20  2  0
 18  1  2  0
 19  1  2  0
 20 14  1  0
 21 10  1  0
 22 32  1  0
 23 26  1  0
 24 11  2  0
 25 10  2  0
 26 14  2  0
 27 15  2  0
 28 15  1  0
 29 11  1  0
 30 17  1  0
 31  5  1  0
 32 33  1  0
 33 21  1  0
 34  6  1  0
 35  8  1  0
 36 39  2  0
 37 29  1  0
 38 13  1  0
 39 42  1  0
 40 28  2  0
 41 28  1  0
 42 32  2  0
 43 37  1  0
 44 43  1  0
 45 34  1  0
 46 31  1  0
 47 48  1  0
 48 35  2  0
 49 44  1  0
 50 44  1  0
 51 45  1  0
 52 41  2  0
 53 40  1  0
 54 52  1  0
 47 38  2  0
 17 12  1  0
  4  5  1  0
 36 16  1  0
 54 53  2  0
M  END
>  <chembl_id>  (7) 
CHEMBL71220

$$$$
CHEMBL127198
     RDKit          2D

 22 24  0  0  0  0  0  0  0  0999 V2000
    4.5667   -5.0542    0.0000 C   0  0  0  0  0  0  0  0  0  0  0  0
    5.0875   -5.3542    0.0000 C   0  0  0  0  0  0  0  0  0  0  0  0
    5.6042   -5.0542    0.0000 C   0  0  0  0  0  0  0  0  0  0  0  0
    4.5625   -4.4542    0.0000 N   0  0  0  0  0  0  0  0  0  0  0  0
    5.0875   -5.9542    0.0000 C   0  0  0  0  0  0  0  0  0  0  0  0
    6.1250   -5.3500    0.0000 C   0  0  0  0  0  0  0  0  0  0  0  0
    6.1292   -5.9542    0.0000 C   0  0  0  0  0  0  0  0  0  0  0  0
    4.0500   -5.3625    0.0000 N   0  0  0  0  0  0  0  0  0  0  0  0
    5.6042   -6.2542    0.0000 C   0  0  0  0  0  0  0  0  0  0  0  0
    4.0417   -4.1625    0.0000 C   0  0  0  0  0  0  0  0  0  0  0  0
    3.0042   -3.5667    0.0000 C   0  0  0  0  0  0  0  0  0  0  0  0
    4.0500   -5.9625    0.0000 C   0  0  0  0  0  0  0  0  0  0  0  0
    6.6417   -5.0500    0.0000 O   0  0  0  0  0  0  0  0  0  0  0  0
    6.6500   -6.2542    0.0000 O   0  0  0  0  0  0  0  0  0  0  0  0
    2.4792   -3.2667    0.0000 Br  0  0  0  0  0  0  0  0  0  0  0  0
    3.5292   -4.4667    0.0000 C   0  0  0  0  0  0  0  0  0  0  0  0
    4.0417   -3.5625    0.0000 C   0  0  0  0  0  0  0  0  0  0  0  0
    3.5167   -3.2667    0.0000 C   0  0  0  0  0  0  0  0  0  0  0  0
    3.0042   -4.1667    0.0000 C   0  0  0  0  0  0  0  0  0  0  0  0
    4.5667   -6.2625    0.0000 C   0  0  0  0  0  0  0  0  0  0  0  0
    6.6375   -4.4417    0.0000 C   0  0  0  0  0  0  0  0  0  0  0  0
    7.1667   -5.9500    0.0000 C   0  0  0  0  0  0  0  0  0  0  0  0
  2  1  1  0
  3  2  2  0
  4  1  1  0
  5  2  1  0
  6  3  1  0
  7  9  1  0
  8  1  2  0
  9  5  2  0
 10  4  1  0
 11 18  2  0
 12  8  1  0
 13  6  1  0
 14  7  1  0
 15 11  1  0
 16 10  1  0
 17 10  2  0
 18 17  1  0
 19 16  2  0
 20 12  2  0
 21 13  1  0
 22 14  1  0
  5 20  1  0
 11 19  1  0
  7  6  2  0
M  END
>  <chembl_id>  (8) 
CHEMBL127198

$$$$
CHEMBL143323
     RDKit          2D

 25 28  0  0  0  0  0  0  0  0999 V2000
    1.4792   -2.3292    0.0000 C   0  0  0  0  0  0  0  0  0  0  0  0
    1.4875   -3.9792    0.0000 N   0  0  0  0  0  0  0  0  0  0  0  0
    0.7667   -2.7417    0.0000 C   0  0  0  0  0  0  0  0  0  0  0  0
    2.1917   -2.7375    0.0000 C   0  0  0  0  0  0  0  0  0  0  0  0
    0.7667   -3.5667    0.0000 C   0  0  0  0  0  0  0  0  0  0  0  0
    2.1917   -3.5667    0.0000 C   0  0  0  0  0  0  0  0  0  0  0  0
    1.4750   -1.5042    0.0000 N   0  0  0  0  0  0  0  0  0  0  0  0
    4.3167    0.1583    0.0000 C   0  0  0  0  0  0  0  0  0  0  0  0
    4.3125    0.9833    0.0000 N   0  0  0  0  0  0  0  0  0  0  0  0
    3.6042   -0.2542    0.0000 C   0  0  0  0  0  0  0  0  0  0  0  0
    2.1875   -1.0875    0.0000 C   0  0  0  0  0  0  0  0  0  0  0  0
    3.6125   -1.0792    0.0000 C   0  0  0  0  0  0  0  0  0  0  0  0
    2.8875    0.1500    0.0000 C   0  0  0  0  0  0  0  0  0  0  0  0
    5.0250    1.4000    0.0000 O   0  0  0  0  0  0  0  0  0  0  0  0
    2.1792   -0.2667    0.0000 C   0  0  0  0  0  0  0  0  0  0  0  0
    2.9000   -1.5000    0.0000 C   0  0  0  0  0  0  0  0  0  0  0  0
    0.0542   -2.3292    0.0000 C   0  0  0  0  0  0  0  0  0  0  0  0
    2.9042   -2.3167    0.0000 C   0  0  0  0  0  0  0  0  0  0  0  0
    2.9167   -3.9750    0.0000 C   0  0  0  0  0  0  0  0  0  0  0  0
    0.0542   -3.9875    0.0000 C   0  0  0  0  0  0  0  0  0  0  0  0
    5.0375   -0.2500    0.0000 C   0  0  0  0  0  0  0  0  0  0  0  0
   -0.6583   -2.7500    0.0000 C   0  0  0  0  0  0  0  0  0  0  0  0
    3.6250   -2.7250    0.0000 C   0  0  0  0  0  0  0  0  0  0  0  0
    3.6292   -3.5542    0.0000 C   0  0  0  0  0  0  0  0  0  0  0  0
   -0.6583   -3.5750    0.0000 C   0  0  0  0  0  0  0  0  0  0  0  0
  2  6  2  0
  3  1  1  0
  4  1  2  0
  5  3  2  0
  6  4  1  0
  7  1  1  0
  8 10  1  0
  9  8  2  0
 10 12  2  0
 11  7  1  0
 12 16  1  0
 13 15  2  0
 14  9  1  0
 15 11  1  0
 16 11  2  0
 17  3  1  0
 18  4  1  0
 19  6  1  0
 20  5  1  0
 21  8  1  0
 22 17  2  0
 23 18  2  0
 24 23  1  0
 25 22  1  0
  5  2  1  0
 13 10  1  0
 19 24  2  0
 20 25  2  0
M  END
>  <chembl_id>  (9) 
CHEMBL143323

$$$$
CHEMBL151205
     RDKit          2D

 31 32  0  0  0  0  0  0  0  0999 V2000
    0.2875   -5.2000    0.0000 C   0  0  0  0  0  0  0  0  0  0  0  0
   -0.4333   -4.7917    0.0000 C   0  0  0  0  0  0  0  0  0  0  0  0
    1.0000   -4.7875    0.0000 O   0  0  0  0  0  0  0  0  0  0  0  0
    0.2875   -6.0250    0.0000 C   0  0  0  0  0  0  0  0  0  0  0  0
   -1.1458   -5.2000    0.0000 C   0  0  0  0  0  0  0  0  0  0  0  0
   -1.1458   -6.0250    0.0000 C   0  0  0  0  0  0  0  0  0  0  0  0
   -0.4250   -6.4375    0.0000 C   0  0  0  0  0  0  0  0  0  0  0  0
    1.7167   -5.2000    0.0000 C   0  0  0  0  0  0  0  0  0  0  0  0
    1.0000   -6.4375    0.0000 C   0  0  0  0  0  0  0  0  0  0  0  0
    3.2625   -2.9417    0.0000 C   0  0  0  0  0  0  0  0  0  0  0  0
    6.1417   -2.9000    0.0000 C   0  0  0  0  0  0  0  0  0  0  0  0
    9.0042   -2.7917    0.0000 C   0  0  0  0  0  0  0  0  0  0  0  0
    8.2750   -2.4042    0.0000 C   0  0  0  0  0  0  0  0  0  0  0  0
    5.4167   -2.5125    0.0000 C   0  0  0  0  0  0  0  0  0  0  0  0
    3.2292   -3.7667    0.0000 C   0  0  0  0  0  0  0  0  0  0  0  0
    1.7167   -6.0250    0.0000 C   0  0  0  0  0  0  0  0  0  0  0  0
   -1.8583   -6.4375    0.0000 O   0  0  0  0  0  0  0  0  0  0  0  0
    2.5042   -4.1542    0.0000 C   0  0  0  0  0  0  0  0  0  0  0  0
    4.7167   -2.9500    0.0000 C   0  0  0  0  0  0  0  0  0  0  0  0
    7.5750   -2.8417    0.0000 C   0  0  0  0  0  0  0  0  0  0  0  0
   -0.4375   -3.9667    0.0000 C   0  0  0  0  0  0  0  0  0  0  0  0
   -1.8583   -4.7875    0.0000 C   0  0  0  0  0  0  0  0  0  0  0  0
    2.5042   -4.9792    0.0000 C   0  0  0  0  0  0  0  0  0  0  0  0
    3.9917   -2.5625    0.0000 C   0  0  0  0  0  0  0  0  0  0  0  0
    6.8417   -2.4625    0.0000 C   0  0  0  0  0  0  0  0  0  0  0  0
    1.7042   -4.3750    0.0000 C   0  0  0  0  0  0  0  0  0  0  0  0
    9.7000   -2.3542    0.0000 C   0  0  0  0  0  0  0  0  0  0  0  0
    9.0292   -3.6167    0.0000 C   0  0  0  0  0  0  0  0  0  0  0  0
    2.5625   -2.5042    0.0000 C   0  0  0  0  0  0  0  0  0  0  0  0
    6.1750   -3.7167    0.0000 C   0  0  0  0  0  0  0  0  0  0  0  0
   -2.5708   -6.0250    0.0000 C   0  0  0  0  0  0  0  0  0  0  0  0
  2  1  2  0
  3  1  1  0
  4  1  1  0
  5  2  1  0
  6  7  1  0
  7  4  2  0
  8  3  1  0
  9  4  1  0
 10 15  2  0
 11 14  2  0
 12 13  2  0
 13 20  1  0
 14 19  1  0
 15 18  1  0
 16  9  1  0
 17  6  1  0
 18 23  1  0
 19 24  1  0
 20 25  1  0
 21  2  1  0
 22  5  1  0
 23  8  1  0
 24 10  1  0
 25 11  1  0
 26  8  1  0
 27 12  1  0
 28 12  1  0
 29 10  1  0
 30 11  1  0
 31 17  1  0
 16  8  1  0
  5  6  2  0
M  END
>  <chembl_id>  (10) 
CHEMBL151205

$$$$
CHEMBL242037
     RDKit          2D

 31 33  0  0  1  0  0  0  0  0999 V2000
   14.0266  -14.9037    0.0000 C   0  0  0  0  0  0  0  0  0  0  0  0
   13.2036  -14.8997    0.0000 C   0  0  0  0  0  0  0  0  0  0  0  0
   12.7862  -15.6120    0.0000 C   0  0  0  0  0  0  0  0  0  0  0  0
   13.1994  -16.3286    0.0000 C   0  0  0  0  0  0  0  0  0  0  0  0
   14.0260  -16.3281    0.0000 C   0  0  0  0  0  0  0  0  0  0  0  0
   14.4347  -15.6108    0.0000 C   0  0  0  0  0  0  0  0  0  0  0  0
   11.9612  -15.6124    0.0000 C   0  0  0  0  0  0  0  0  0  0  0  0
   11.5475  -16.3255    0.0000 C   0  0  0  0  0  0  0  0  0  0  0  0
   10.7226  -16.3214    0.0000 C   0  0  0  0  0  0  0  0  0  0  0  0
   10.3134  -17.0344    0.0000 C   0  0  0  0  0  0  0  0  0  0  0  0
    9.4893  -17.0329    0.0000 C   0  0  0  0  0  0  0  0  0  0  0  0
    9.0711  -17.7451    0.0000 C   0  0  0  0  0  0  0  0  0  0  0  0
    9.4870  -18.4677    0.0000 C   0  0  0  0  0  0  0  0  0  0  0  0
   10.3115  -18.4645    0.0000 C   0  0  0  0  0  0  0  0  0  0  0  0
   10.7215  -17.7518    0.0000 C   0  0  0  0  0  0  0  0  0  0  0  0
   15.2597  -15.6141    0.0000 N   0  0  0  0  0  0  0  0  0  0  0  0
   15.7239  -16.2956    0.0000 C   0  0  0  0  0  0  0  0  0  0  0  0
   16.5175  -16.0683    0.0000 C   0  0  0  0  0  0  0  0  0  0  0  0
   16.5482  -15.2615    0.0000 O   0  0  0  0  0  0  0  0  0  0  0  0
   15.7767  -14.9682    0.0000 C   0  0  0  0  0  0  0  0  0  0  0  0
   17.1818  -16.5679    0.0000 C   0  0  0  0  0  0  0  0  0  0  0  0
   17.9399  -16.2422    0.0000 N   0  0  0  0  0  0  0  0  0  0  0  0
   18.6043  -16.7372    0.0000 C   0  0  0  0  0  0  0  0  0  0  0  0
   19.3624  -16.4207    0.0000 C   0  0  0  0  0  0  0  0  0  0  0  0
   18.5014  -17.5577    0.0000 O   0  0  0  0  0  0  0  0  0  0  0  0
   15.5537  -14.1702    0.0000 O   0  0  0  0  0  0  0  0  0  0  0  0
   11.5463  -14.8974    0.0000 O   0  0  0  0  0  0  0  0  0  0  0  0
    8.2461  -17.7415    0.0000 O   0  0  0  0  0  0  0  0  0  0  0  0
    9.0723  -19.1828    0.0000 O   0  0  0  0  0  0  0  0  0  0  0  0
    8.2473  -19.1830    0.0000 C   0  0  0  0  0  0  0  0  0  0  0  0
    7.8391  -17.0246    0.0000 C   0  0  0  0  0  0  0  0  0  0  0  0
 15 10  1  0
  3  4  1  0
  6 16  1  0
 16 17  1  0
  7  8  1  0
  8  9  2  0
  4  5  2  0
 17 18  1  0
 18 19  1  0
 19 20  1  0
 20 16  1  0
  9 10  1  0
 18 21  1  1
  2  3  2  0
 21 22  1  0
 10 11  2  0
 22 23  1  0
  5  6  1  0
 23 24  1  0
 11 12  1  0
 23 25  2  0
  6  1  2  0
 20 26  2  0
 12 13  2  0
  7 27  2  0
  1  2  1  0
 12 28  1  0
 13 14  1  0
 13 29  1  0
  3  7  1  0
 29 30  1  0
 14 15  2  0
 28 31  1  0
M  END
>  <chembl_id>  (11) 
CHEMBL242037

$$$$
CHEMBL247627
     RDKit          2D

 26 28  0  0  0  0  0  0  0  0999 V2000
   -3.5931   -3.0875    0.0000 C   0  0  0  0  0  0  0  0  0  0  0  0
   -3.5943   -3.9148    0.0000 C   0  0  0  0  0  0  0  0  0  0  0  0
   -2.8794   -4.3277    0.0000 N   0  0  0  0  0  0  0  0  0  0  0  0
   -2.1630   -3.9144    0.0000 C   0  0  0  0  0  0  0  0  0  0  0  0
   -2.1659   -3.0838    0.0000 C   0  0  0  0  0  0  0  0  0  0  0  0
   -2.8812   -2.6747    0.0000 C   0  0  0  0  0  0  0  0  0  0  0  0
   -1.4529   -2.6686    0.0000 C   0  0  0  0  0  0  0  0  0  0  0  0
   -0.7369   -3.0784    0.0000 N   0  0  0  0  0  0  0  0  0  0  0  0
   -1.4561   -1.8436    0.0000 O   0  0  0  0  0  0  0  0  0  0  0  0
   -0.7338   -3.9034    0.0000 C   0  0  0  0  0  0  0  0  0  0  0  0
   -0.0240   -2.6633    0.0000 C   0  0  0  0  0  0  0  0  0  0  0  0
    0.6946   -2.2565    0.0000 C   0  0  0  0  0  0  0  0  0  0  0  0
    1.3992   -2.6813    0.0000 O   0  0  0  0  0  0  0  0  0  0  0  0
    1.4210   -1.0260    0.0000 C   0  0  0  0  0  0  0  0  0  0  0  0
    1.4291   -0.2010    0.0000 C   0  0  0  0  0  0  0  0  0  0  0  0
    2.1475    0.2046    0.0000 C   0  0  0  0  0  0  0  0  0  0  0  0
    0.7025   -1.4324    0.0000 N   0  0  0  0  0  0  0  0  0  0  0  0
   -1.1383   -4.6178    0.0000 C   0  0  0  0  0  0  0  0  0  0  0  0
   -0.3133   -4.6147    0.0000 C   0  0  0  0  0  0  0  0  0  0  0  0
   -0.4347   -1.9479    0.0000 C   0  0  0  0  0  0  0  0  0  0  0  0
    0.3860   -3.3791    0.0000 C   0  0  0  0  0  0  0  0  0  0  0  0
   -0.0342   -4.0903    0.0000 C   0  0  0  0  0  0  0  0  0  0  0  0
    0.3752   -4.8057    0.0000 C   0  0  0  0  0  0  0  0  0  0  0  0
    1.2010   -4.8090    0.0000 C   0  0  0  0  0  0  0  0  0  0  0  0
    1.6158   -4.0909    0.0000 C   0  0  0  0  0  0  0  0  0  0  0  0
    1.2040   -3.3785    0.0000 C   0  0  0  0  0  0  0  0  0  0  0  0
  3  4  1  0
 15 16  2  0
  7  8  1  0
  7  9  2  0
  4  5  2  0
  8 10  1  0
  2  3  2  0
  8 11  1  0
  5  6  1  0
 18 10  1  0
 19 18  1  0
 10 19  1  0
 11 12  1  0
 12 17  1  0
 11 20  1  0
  6  1  2  0
 11 21  1  0
 12 13  2  0
 21 22  2  0
  1  2  1  0
 22 23  1  0
 17 14  1  0
 23 24  2  0
  5  7  1  0
 24 25  1  0
 14 15  1  0
 25 26  2  0
 26 21  1  0
M  END
>  <chembl_id>  (12) 
CHEMBL247627

$$$$
CHEMBL254072
     RDKit          2D

 36 37  0  0  0  0  0  0  0  0999 V2000
    2.9751  -23.8343    0.0000 C   0  0  0  0  0  0  0  0  0  0  0  0
    2.9756  -24.6565    0.0000 C   0  0  0  0  0  0  0  0  0  0  0  0
    3.6907  -25.0662    0.0000 C   0  0  0  0  0  0  0  0  0  0  0  0
    4.4046  -24.6510    0.0000 C   0  0  0  0  0  0  0  0  0  0  0  0
    4.3989  -23.8217    0.0000 C   0  0  0  0  0  0  0  0  0  0  0  0
    3.6831  -23.4157    0.0000 C   0  0  0  0  0  0  0  0  0  0  0  0
    5.1103  -23.4040    0.0000 C   0  0  0  0  0  0  0  0  0  0  0  0
    5.1212  -25.0598    0.0000 O   0  0  0  0  0  0  0  0  0  0  0  0
    3.6934  -25.8912    0.0000 C   0  0  0  0  0  0  0  0  0  0  0  0
    3.6877  -26.7137    0.0000 C   0  0  0  0  0  0  0  0  0  0  0  0
    4.5184  -25.8927    0.0000 C   0  0  0  0  0  0  0  0  0  0  0  0
    2.8684  -25.8922    0.0000 C   0  0  0  0  0  0  0  0  0  0  0  0
    5.8211  -22.9845    0.0000 C   0  0  0  0  0  0  0  0  0  0  0  0
    5.5288  -24.1150    0.0000 C   0  0  0  0  0  0  0  0  0  0  0  0
    4.6915  -22.6932    0.0000 C   0  0  0  0  0  0  0  0  0  0  0  0
   -2.7389  -23.8541    0.0000 C   0  0  0  0  0  0  0  0  0  0  0  0
   -2.7401  -24.6815    0.0000 C   0  0  0  0  0  0  0  0  0  0  0  0
   -2.0253  -25.0944    0.0000 C   0  0  0  0  0  0  0  0  0  0  0  0
   -1.3088  -24.6810    0.0000 C   0  0  0  0  0  0  0  0  0  0  0  0
   -1.3117  -23.8505    0.0000 C   0  0  0  0  0  0  0  0  0  0  0  0
   -2.0271  -23.4414    0.0000 C   0  0  0  0  0  0  0  0  0  0  0  0
   -3.4549  -25.0934    0.0000 O   0  0  0  0  0  0  0  0  0  0  0  0
   -3.4535  -23.4418    0.0000 O   0  0  0  0  0  0  0  0  0  0  0  0
   -0.5988  -23.4353    0.0000 C   0  0  0  0  0  0  0  0  0  0  0  0
   -3.4537  -22.6168    0.0000 C   0  0  0  0  0  0  0  0  0  0  0  0
    0.1172  -23.8451    0.0000 C   0  0  0  0  0  0  0  0  0  0  0  0
    0.8302  -23.4299    0.0000 C   0  0  0  0  0  0  0  0  0  0  0  0
    1.5462  -23.8397    0.0000 N   0  0  0  0  0  0  0  0  0  0  0  0
    2.2591  -23.4245    0.0000 C   0  0  0  0  0  0  0  0  0  0  0  0
    0.8270  -22.6049    0.0000 O   0  0  0  0  0  0  0  0  0  0  0  0
   -2.0255  -25.9194    0.0000 O   0  0  0  0  0  0  0  0  0  0  0  0
   -2.7401  -26.3317    0.0000 C   0  0  0  0  0  0  0  0  0  0  0  0
   -2.7393  -22.2041    0.0000 C   0  0  0  0  0  0  0  0  0  0  0  0
   -2.7395  -21.3791    0.0000 C   0  0  0  0  0  0  0  0  0  0  0  0
   -3.4544  -25.9190    0.0000 C   0  0  0  0  0  0  0  0  0  0  0  0
   -4.1690  -26.3313    0.0000 C   0  0  0  0  0  0  0  0  0  0  0  0
  3  9  1  0
 18 19  1  0
  4  5  2  0
 19 20  2  0
  9 10  1  0
 20 21  1  0
 21 16  2  0
  2  3  2  0
 17 22  1  0
  9 11  1  0
 16 23  1  0
  5  6  1  0
 20 24  1  0
  9 12  1  0
 23 25  1  0
  6  1  2  0
 24 26  2  0
  7 13  1  0
 26 27  1  0
  1  2  1  0
 27 28  1  0
  7 14  1  0
 28 29  1  0
 29  1  1  0
  5  7  1  0
 27 30  2  0
  7 15  1  0
 18 31  1  0
  3  4  1  0
 31 32  1  0
  4  8  1  0
 25 33  1  0
 16 17  1  0
 33 34  1  0
 32 35  1  0
 17 18  2  0
 35 36  1  0
M  END
>  <chembl_id>  (13) 
CHEMBL254072

$$$$
CHEMBL262072
     RDKit          2D

 28 31  0  0  1  0  0  0  0  0999 V2000
    6.7581  -16.7485    0.0000 N   0  0  0  0  0  0  0  0  0  0  0  0
    7.4745  -16.3352    0.0000 C   0  0  0  0  0  0  0  0  0  0  0  0
    7.4716  -15.5047    0.0000 N   0  0  0  0  0  0  0  0  0  0  0  0
    6.7562  -15.0955    0.0000 C   0  0  0  0  0  0  0  0  0  0  0  0
    6.0432  -16.3357    0.0000 C   0  0  0  0  0  0  0  0  0  0  0  0
    6.0445  -15.5068    0.0000 C   0  0  0  0  0  0  0  0  0  0  0  0
    5.2565  -15.2494    0.0000 N   0  0  0  0  0  0  0  0  0  0  0  0
    4.7682  -15.9193    0.0000 C   0  0  0  0  0  0  0  0  0  0  0  0
    5.2545  -16.5906    0.0000 N   0  0  0  0  0  0  0  0  0  0  0  0
    4.8375  -17.3000    0.0000 C   0  0  0  0  0  0  0  0  0  0  0  0
    4.0139  -17.3801    0.0000 O   0  0  0  0  0  0  0  0  0  0  0  0
    3.8366  -18.1836    0.0000 C   0  0  0  0  0  0  0  0  0  0  0  0
    4.5460  -18.6007    0.0000 C   0  0  0  0  0  0  0  0  0  0  0  0
    5.1618  -18.0548    0.0000 C   0  0  0  0  0  0  0  0  0  0  0  0
    3.0083  -18.1792    0.0000 C   0  0  0  0  0  0  0  0  0  0  0  0
    2.5997  -17.4625    0.0000 O   0  0  0  0  0  0  0  0  0  0  0  0
    4.6259  -19.4218    0.0000 O   0  0  0  0  0  0  0  0  0  0  0  0
    5.9669  -18.2346    0.0000 O   0  0  0  0  0  0  0  0  0  0  0  0
    6.7544  -14.2705    0.0000 S   0  0  0  0  0  0  0  0  0  0  0  0
    7.4680  -13.8565    0.0000 C   0  0  0  0  0  0  0  0  0  0  0  0
    8.1896  -16.7466    0.0000 N   0  0  0  0  0  0  0  0  0  0  0  0
    8.1834  -14.2674    0.0000 C   0  0  0  0  0  0  0  0  0  0  0  0
    8.8969  -13.8533    0.0000 C   0  0  0  0  0  0  0  0  0  0  0  0
    9.6084  -14.2665    0.0000 C   0  0  0  0  0  0  0  0  0  0  0  0
   10.3215  -13.8531    0.0000 C   0  0  0  0  0  0  0  0  0  0  0  0
   10.3201  -13.0272    0.0000 C   0  0  0  0  0  0  0  0  0  0  0  0
    9.5997  -12.6165    0.0000 C   0  0  0  0  0  0  0  0  0  0  0  0
    8.8896  -13.0322    0.0000 C   0  0  0  0  0  0  0  0  0  0  0  0
 12 13  1  0
 13 14  1  0
 14 10  1  0
 12 15  1  1
  3  4  2  0
 15 16  1  0
  6  7  1  0
 13 17  1  6
  7  8  2  0
 14 18  1  6
  8  9  1  0
  4 19  1  0
  9  5  1  0
 19 20  1  0
  4  6  1  0
  2 21  1  0
 10  9  1  1
 20 22  1  0
 10 11  1  0
 22 23  1  0
  5  6  2  0
 23 24  2  0
  1  2  2  0
 24 25  1  0
  5  1  1  0
 25 26  2  0
  2  3  1  0
 26 27  1  0
 11 12  1  0
 27 28  2  0
 28 23  1  0
M  END
>  <chembl_id>  (14) 
CHEMBL262072

$$$$
CHEMBL297566
     RDKit          2D

 42 45  0  0  0  0  0  0  0  0999 V2000
   -0.6125   -2.7000    0.0000 N   0  0  0  0  0  0  0  0  0  0  0  0
   -0.0958   -3.6000    0.0000 N   0  0  0  0  0  0  0  0  0  0  0  0
    0.4250   -2.6917    0.0000 C   0  0  0  0  0  0  0  0  0  0  0  0
    0.4250   -3.2917    0.0000 C   0  0  0  0  0  0  0  0  0  0  0  0
   -0.0958   -2.3917    0.0000 C   0  0  0  0  0  0  0  0  0  0  0  0
   -0.6125   -3.3000    0.0000 C   0  0  0  0  0  0  0  0  0  0  0  0
    0.9417   -2.3917    0.0000 N   0  0  0  0  0  0  0  0  0  0  0  0
    4.5667   -1.4667    0.0000 C   0  0  0  0  0  0  0  0  0  0  0  0
    0.9417   -3.5917    0.0000 N   0  0  0  0  0  0  0  0  0  0  0  0
    5.0917   -1.7625    0.0000 N   0  0  0  0  0  0  0  0  0  0  0  0
    7.1917   -4.1417    0.0000 C   0  0  0  0  0  0  0  0  0  0  0  0
    7.7125   -4.4292    0.0000 C   0  0  0  0  0  0  0  0  0  0  0  0
    7.1792   -3.5417    0.0000 C   0  0  0  0  0  0  0  0  0  0  0  0
    8.2292   -4.1250    0.0000 C   0  0  0  0  0  0  0  0  0  0  0  0
    5.6042   -0.8542    0.0000 C   0  0  0  0  0  0  0  0  0  0  0  0
    5.6042   -1.4542    0.0000 C   0  0  0  0  0  0  0  0  0  0  0  0
    4.0500   -1.7667    0.0000 C   0  0  0  0  0  0  0  0  0  0  0  0
    4.5625   -0.8667    0.0000 O   0  0  0  0  0  0  0  0  0  0  0  0
    7.7042   -3.2375    0.0000 O   0  0  0  0  0  0  0  0  0  0  0  0
    8.2167   -3.5250    0.0000 O   0  0  0  0  0  0  0  0  0  0  0  0
    5.0792   -0.5625    0.0000 O   0  0  0  0  0  0  0  0  0  0  0  0
    1.4625   -2.6875    0.0000 C   0  0  0  0  0  0  0  0  0  0  0  0
   -0.1000   -1.7917    0.0000 N   0  0  0  0  0  0  0  0  0  0  0  0
   -1.1333   -3.6000    0.0000 N   0  0  0  0  0  0  0  0  0  0  0  0
    6.6625   -3.2417    0.0000 N   0  0  0  0  0  0  0  0  0  0  0  0
    4.0542   -2.3667    0.0000 C   0  0  0  0  0  0  0  0  0  0  0  0
    3.5250   -1.4750    0.0000 C   0  0  0  0  0  0  0  0  0  0  0  0
    1.4667   -3.2917    0.0000 C   0  0  0  0  0  0  0  0  0  0  0  0
    8.7500   -4.4167    0.0000 O   0  0  0  0  0  0  0  0  0  0  0  0
    6.1167   -0.5542    0.0000 O   0  0  0  0  0  0  0  0  0  0  0  0
    3.0167   -2.3750    0.0000 C   0  0  0  0  0  0  0  0  0  0  0  0
    3.5375   -2.6750    0.0000 C   0  0  0  0  0  0  0  0  0  0  0  0
    3.0125   -1.7792    0.0000 C   0  0  0  0  0  0  0  0  0  0  0  0
    1.9792   -2.3792    0.0000 C   0  0  0  0  0  0  0  0  0  0  0  0
    2.5042   -2.6792    0.0000 C   0  0  0  0  0  0  0  0  0  0  0  0
    7.7167   -5.0292    0.0000 C   0  0  0  0  0  0  0  0  0  0  0  0
    6.6750   -4.4417    0.0000 C   0  0  0  0  0  0  0  0  0  0  0  0
    6.1292   -1.7542    0.0000 C   0  0  0  0  0  0  0  0  0  0  0  0
    6.6542   -2.6417    0.0000 C   0  0  0  0  0  0  0  0  0  0  0  0
    6.1375   -2.3542    0.0000 C   0  0  0  0  0  0  0  0  0  0  0  0
    7.2000   -5.3417    0.0000 C   0  0  0  0  0  0  0  0  0  0  0  0
    6.6792   -5.0417    0.0000 C   0  0  0  0  0  0  0  0  0  0  0  0
  2  6  2  0
  3  5  1  0
  4  2  1  0
  5  1  2  0
  6  1  1  0
  7  3  2  0
  8 17  1  0
  9  4  2  0
 10  8  1  0
 11 13  1  0
 12 11  2  0
 13 25  1  0
 14 12  1  0
 15 16  1  0
 16 10  1  0
 17 27  2  0
 18  8  2  0
 19 13  2  0
 20 14  2  0
 21 15  2  0
 22  7  1  0
 23  5  1  0
 24  6  1  0
 25 39  1  0
 26 32  2  0
 27 33  1  0
 28  9  1  0
 29 14  1  0
 30 15  1  0
 31 35  1  0
 32 31  1  0
 33 31  2  0
 34 22  1  0
 35 34  1  0
 36 12  1  0
 37 11  1  0
 38 16  1  0
 39 40  1  0
 40 38  1  0
 41 42  1  0
 42 37  2  0
  4  3  1  0
 22 28  2  0
 17 26  1  0
 36 41  2  0
M  END
>  <chembl_id>  (15) 
CHEMBL297566

$$$$
CHEMBL354261
     RDKit          2D

 19 20  0  0  0  0  0  0  0  0999 V2000
   -0.8908  -22.9848    0.0000 C   0  0  0  0  0  0  0  0  0  0  0  0
   -0.8920  -23.8124    0.0000 C   0  0  0  0  0  0  0  0  0  0  0  0
   -0.1791  -24.2252    0.0000 C   0  0  0  0  0  0  0  0  0  0  0  0
    0.5403  -23.8119    0.0000 C   0  0  0  0  0  0  0  0  0  0  0  0
    0.5371  -22.9808    0.0000 C   0  0  0  0  0  0  0  0  0  0  0  0
   -0.1811  -22.5720    0.0000 C   0  0  0  0  0  0  0  0  0  0  0  0
    1.2551  -24.2237    0.0000 C   0  0  0  0  0  0  0  0  0  0  0  0
    1.9692  -23.8105    0.0000 N   0  0  0  0  0  0  0  0  0  0  0  0
    2.6840  -24.2224    0.0000 N   0  0  0  0  0  0  0  0  0  0  0  0
    3.3980  -23.8092    0.0000 C   0  0  0  0  0  0  0  0  0  0  0  0
    4.1129  -24.2210    0.0000 C   0  0  0  0  0  0  0  0  0  0  0  0
    3.3974  -22.9842    0.0000 O   0  0  0  0  0  0  0  0  0  0  0  0
    4.1093  -25.0440    0.0000 C   0  0  0  0  0  0  0  0  0  0  0  0
    4.8233  -25.4559    0.0000 C   0  0  0  0  0  0  0  0  0  0  0  0
    5.5384  -25.0426    0.0000 C   0  0  0  0  0  0  0  0  0  0  0  0
    5.5349  -24.2133    0.0000 C   0  0  0  0  0  0  0  0  0  0  0  0
    4.8204  -23.8054    0.0000 C   0  0  0  0  0  0  0  0  0  0  0  0
    4.8152  -22.9804    0.0000 O   0  0  0  0  0  0  0  0  0  0  0  0
    1.2496  -22.5647    0.0000 O   0  0  0  0  0  0  0  0  0  0  0  0
  4  5  2  0
  9 10  1  0
  2  3  2  0
 10 11  1  0
  5  6  1  0
 10 12  2  0
  6  1  2  0
 11 13  2  0
  1  2  1  0
 13 14  1  0
  4  7  1  0
 14 15  2  0
  3  4  1  0
 15 16  1  0
  7  8  2  0
 16 17  2  0
 17 11  1  0
 17 18  1  0
  8  9  1  0
  5 19  1  0
M  END
>  <chembl_id>  (16) 
CHEMBL354261

$$$$
CHEMBL384474
     RDKit          2D

 12 12  0  0  1  0  0  0  0  0999 V2000
    1.6000   -8.2541    0.0000 C   0  0  0  0  0  0  0  0  0  0  0  0
    2.3144   -7.8416    0.0000 C   0  0  0  0  0  0  0  0  0  0  0  0
    3.0289   -8.2541    0.0000 C   0  0  0  0  0  0  0  0  0  0  0  0
    2.3144   -7.0166    0.0000 N   0  0  0  0  0  0  0  0  0  0  0  0
    3.0326   -9.0808    0.0000 O   0  0  0  0  0  0  0  0  0  0  0  0
    3.7471   -7.8433    0.0000 O   0  0  0  0  0  0  0  0  0  0  0  0
    0.7750   -8.2541    0.0000 C   0  0  0  0  0  0  0  0  0  0  0  0
    0.7750   -9.0791    0.0000 C   0  0  0  0  0  0  0  0  0  0  0  0
    1.6000   -9.0791    0.0000 C   0  0  0  0  0  0  0  0  0  0  0  0
    0.7667   -7.4250    0.0000 C   0  0  0  0  0  0  0  0  0  0  0  0
    1.4783   -7.0020    0.0000 O   0  0  0  0  0  0  0  0  0  0  0  0
    0.0422   -7.0164    0.0000 O   0  0  0  0  0  0  0  0  0  0  0  0
  2  4  1  6
  8  9  1  0
  1  9  1  6
  1  7  1  0
  2  3  1  0
  3  5  1  0
  7 10  1  6
  3  6  2  0
  7  8  1  0
  1  2  1  0
 10 11  1  0
 10 12  2  0
M  END
>  <chembl_id>  (17) 
CHEMBL384474

$$$$
CHEMBL421934
     RDKit          2D

 32 35  0  0  0  0  0  0  0  0999 V2000
    1.8042   -5.9667    0.0000 N   0  0  0  0  0  0  0  0  0  0  0  0
    2.4042   -4.7875    0.0000 C   0  0  0  0  0  0  0  0  0  0  0  0
    2.5375   -5.6000    0.0000 C   0  0  0  0  0  0  0  0  0  0  0  0
    1.6000   -4.6542    0.0000 C   0  0  0  0  0  0  0  0  0  0  0  0
    9.3750   -2.5792    0.0000 C   0  0  0  0  0  0  0  0  0  0  0  0
    8.6625   -3.0000    0.0000 C   0  0  0  0  0  0  0  0  0  0  0  0
    1.2250   -5.3917    0.0000 C   0  0  0  0  0  0  0  0  0  0  0  0
    7.9417   -2.5875    0.0000 C   0  0  0  0  0  0  0  0  0  0  0  0
    4.3750   -3.8375    0.0000 N   0  0  0  0  0  0  0  0  0  0  0  0
    2.9917   -4.2042    0.0000 C   0  0  0  0  0  0  0  0  0  0  0  0
    9.3667   -1.7542    0.0000 O   0  0  0  0  0  0  0  0  0  0  0  0
   10.0917   -2.9917    0.0000 N   0  0  0  0  0  0  0  0  0  0  0  0
    7.2292   -3.0042    0.0000 C   0  0  0  0  0  0  0  0  0  0  0  0
    5.0917   -4.2417    0.0000 C   0  0  0  0  0  0  0  0  0  0  0  0
    4.2625   -3.0167    0.0000 C   0  0  0  0  0  0  0  0  0  0  0  0
    3.7917   -4.4167    0.0000 C   0  0  0  0  0  0  0  0  0  0  0  0
    5.8042   -3.8292    0.0000 C   0  0  0  0  0  0  0  0  0  0  0  0
    6.5167   -2.5917    0.0000 C   0  0  0  0  0  0  0  0  0  0  0  0
    7.2375   -3.8292    0.0000 C   0  0  0  0  0  0  0  0  0  0  0  0
    3.5042   -2.7042    0.0000 C   0  0  0  0  0  0  0  0  0  0  0  0
    6.5167   -4.2417    0.0000 C   0  0  0  0  0  0  0  0  0  0  0  0
    5.8042   -3.0042    0.0000 C   0  0  0  0  0  0  0  0  0  0  0  0
   10.8042   -2.5792    0.0000 O   0  0  0  0  0  0  0  0  0  0  0  0
    1.1542   -3.9667    0.0000 C   0  0  0  0  0  0  0  0  0  0  0  0
    0.3917   -5.4292    0.0000 C   0  0  0  0  0  0  0  0  0  0  0  0
    3.4000   -1.8875    0.0000 C   0  0  0  0  0  0  0  0  0  0  0  0
    2.8542   -3.2042    0.0000 C   0  0  0  0  0  0  0  0  0  0  0  0
    0.3292   -4.0000    0.0000 C   0  0  0  0  0  0  0  0  0  0  0  0
   -0.0583   -4.7292    0.0000 C   0  0  0  0  0  0  0  0  0  0  0  0
    2.0917   -2.8917    0.0000 C   0  0  0  0  0  0  0  0  0  0  0  0
    2.6417   -1.5750    0.0000 C   0  0  0  0  0  0  0  0  0  0  0  0
    1.9875   -2.0750    0.0000 C   0  0  0  0  0  0  0  0  0  0  0  0
  2  3  2  0
  3  1  1  0
  4  7  2  0
  5  6  1  0
  6  8  2  0
  7  1  1  0
  8 13  1  0
  9 16  1  0
 10  2  1  0
 11  5  2  0
 12  5  1  0
 13 18  2  0
 14  9  1  0
 15  9  1  0
 16 10  1  0
 17 14  1  0
 18 22  1  0
 19 21  2  0
 20 15  1  0
 21 17  1  0
 22 17  2  0
 23 12  1  0
 24  4  1  0
 25  7  1  0
 26 20  2  0
 27 20  1  0
 28 29  1  0
 29 25  2  0
 30 27  2  0
 31 26  1  0
 32 30  1  0
  2  4  1  0
 24 28  2  0
 19 13  1  0
 31 32  2  0
M  END
>  <chembl_id>  (18) 
CHEMBL421934

$$$$
CHEMBL479400
     RDKit          2D

 33 36  0  0  0  0  0  0  0  0999 V2000
   10.3789   -8.8257    0.0000 O   0  0  0  0  0  0  0  0  0  0  0  0
   11.0602   -8.3605    0.0000 C   0  0  0  0  0  0  0  0  0  0  0  0
   10.8301   -7.5681    0.0000 C   0  0  0  0  0  0  0  0  0  0  0  0
   10.0029   -7.5436    0.0000 C   0  0  0  0  0  0  0  0  0  0  0  0
    9.7282   -8.3206    0.0000 C   0  0  0  0  0  0  0  0  0  0  0  0
   11.7709   -8.7709    0.0000 C   0  0  0  0  0  0  0  0  0  0  0  0
   11.7707   -9.5959    0.0000 C   0  0  0  0  0  0  0  0  0  0  0  0
   12.4854   -8.3585    0.0000 C   0  0  0  0  0  0  0  0  0  0  0  0
   12.4856   -7.5335    0.0000 O   0  0  0  0  0  0  0  0  0  0  0  0
    9.0084   -8.7251    0.0000 C   0  0  0  0  0  0  0  0  0  0  0  0
    8.2987   -8.3043    0.0000 C   0  0  0  0  0  0  0  0  0  0  0  0
    7.5795   -8.7085    0.0000 C   0  0  0  0  0  0  0  0  0  0  0  0
    8.3083   -7.4793    0.0000 N   0  0  0  0  0  0  0  0  0  0  0  0
    8.9839   -7.0059    0.0000 N   0  0  0  0  0  0  0  0  0  0  0  0
    8.7381   -6.2183    0.0000 N   0  0  0  0  0  0  0  0  0  0  0  0
    7.9131   -6.2087    0.0000 C   0  0  0  0  0  0  0  0  0  0  0  0
    7.6492   -6.9903    0.0000 C   0  0  0  0  0  0  0  0  0  0  0  0
    7.4959   -5.4917    0.0000 C   0  0  0  0  0  0  0  0  0  0  0  0
    7.0792   -4.7751    0.0000 C   0  0  0  0  0  0  0  0  0  0  0  0
    6.6645   -4.0618    0.0000 C   0  0  0  0  0  0  0  0  0  0  0  0
    5.8379   -2.6396    0.0000 C   0  0  0  0  0  0  0  0  0  0  0  0
    5.4277   -3.3604    0.0000 C   0  0  0  0  0  0  0  0  0  0  0  0
    5.8440   -4.0703    0.0000 C   0  0  0  0  0  0  0  0  0  0  0  0
   13.1955   -8.7709    0.0000 N   0  0  0  0  0  0  0  0  0  0  0  0
    6.6572   -2.6393    0.0000 C   0  0  0  0  0  0  0  0  0  0  0  0
    7.0757   -3.3491    0.0000 C   0  0  0  0  0  0  0  0  0  0  0  0
    7.8977   -3.3406    0.0000 C   0  0  0  0  0  0  0  0  0  0  0  0
    8.3023   -2.6231    0.0000 C   0  0  0  0  0  0  0  0  0  0  0  0
    7.8788   -1.9126    0.0000 C   0  0  0  0  0  0  0  0  0  0  0  0
    7.0582   -1.9246    0.0000 C   0  0  0  0  0  0  0  0  0  0  0  0
   13.9110   -8.3602    0.0000 C   0  0  0  0  0  0  0  0  0  0  0  0
   14.6244   -8.7745    0.0000 C   0  0  0  0  0  0  0  0  0  0  0  0
   13.9131   -7.5352    0.0000 C   0  0  0  0  0  0  0  0  0  0  0  0
 19 20  1  0
  5 10  1  6
  2  1  1  0
 10 11  1  0
  2  6  1  0
 11 12  1  1
 11 13  1  0
 13 14  1  0
  6  7  1  6
 20 26  2  0
 25 21  2  0
  2  3  1  6
 21 22  1  0
  6  8  1  0
 22 23  2  0
 23 20  1  0
  3  4  1  0
 14 15  2  0
 15 16  1  0
 16 17  2  0
 17 13  1  0
 25 26  1  0
  8 24  1  0
 26 27  1  0
 27 28  2  0
  4  5  1  0
 28 29  1  0
 16 18  1  0
 29 30  2  0
 30 25  1  0
  8  9  2  0
 24 31  1  0
 18 19  3  0
 31 32  1  0
  5  1  1  0
 31 33  1  0
M  END
>  <chembl_id>  (19) 
CHEMBL479400

$$$$
CHEMBL486191
     RDKit          2D

 30 34  0  0  0  0  0  0  0  0999 V2000
   -2.3567    1.2256    0.0000 C   0  0  0  0  0  0  0  0  0  0  0  0
   -2.3579    0.3979    0.0000 C   0  0  0  0  0  0  0  0  0  0  0  0
   -0.9289    1.2293    0.0000 C   0  0  0  0  0  0  0  0  0  0  0  0
   -1.6445    1.6386    0.0000 C   0  0  0  0  0  0  0  0  0  0  0  0
   -0.9259    0.3983    0.0000 C   0  0  0  0  0  0  0  0  0  0  0  0
   -1.6436   -0.0130    0.0000 C   0  0  0  0  0  0  0  0  0  0  0  0
   -0.9299   -1.2532    0.0000 C   0  0  0  0  0  0  0  0  0  0  0  0
   -1.6412   -0.8359    0.0000 C   0  0  0  0  0  0  0  0  0  0  0  0
   -2.3560   -1.2432    0.0000 C   0  0  0  0  0  0  0  0  0  0  0  0
   -2.3609   -2.0677    0.0000 C   0  0  0  0  0  0  0  0  0  0  0  0
   -1.6448   -2.4831    0.0000 C   0  0  0  0  0  0  0  0  0  0  0  0
   -0.9329   -2.0734    0.0000 C   0  0  0  0  0  0  0  0  0  0  0  0
   -0.2134   -0.0129    0.0000 C   0  0  0  0  0  0  0  0  0  0  0  0
   -0.2127   -0.8380    0.0000 C   0  0  0  0  0  0  0  0  0  0  0  0
    0.4983   -1.2477    0.0000 C   0  0  0  0  0  0  0  0  0  0  0  0
    0.4968    0.4026    0.0000 C   0  0  0  0  0  0  0  0  0  0  0  0
    1.2124   -0.0116    0.0000 C   0  0  0  0  0  0  0  0  0  0  0  0
    1.2119   -0.8366    0.0000 N   0  0  0  0  0  0  0  0  0  0  0  0
    1.9964   -1.0922    0.0000 C   0  0  0  0  0  0  0  0  0  0  0  0
    2.4818   -0.4250    0.0000 C   0  0  0  0  0  0  0  0  0  0  0  0
    1.9973    0.2427    0.0000 C   0  0  0  0  0  0  0  0  0  0  0  0
    1.2048   -1.6591    0.0000 O   0  0  0  0  0  0  0  0  0  0  0  0
   -1.6470    2.4640    0.0000 O   0  0  0  0  0  0  0  0  0  0  0  0
   -0.9335    2.8788    0.0000 C   0  0  0  0  0  0  0  0  0  0  0  0
   -3.0717    1.6382    0.0000 O   0  0  0  0  0  0  0  0  0  0  0  0
   -3.0719    2.4636    0.0000 C   0  0  0  0  0  0  0  0  0  0  0  0
   -3.0685   -0.8264    0.0000 O   0  0  0  0  0  0  0  0  0  0  0  0
   -3.0637   -0.0010    0.0000 C   0  0  0  0  0  0  0  0  0  0  0  0
   -3.0774   -2.4775    0.0000 O   0  0  0  0  0  0  0  0  0  0  0  0
   -3.7905   -2.0620    0.0000 C   0  0  0  0  0  0  0  0  0  0  0  0
  7 14  1  0
 13  5  1  0
 13 16  1  0
 14 15  1  0
 15 18  1  0
 17 16  1  1
 17 18  1  0
  5  3  1  0
  1  2  2  0
  7  8  2  0
  3  4  2  0
  8  9  1  0
 18 19  1  0
 19 20  1  0
 20 21  1  0
 21 17  1  0
  4  1  1  0
  9 10  2  0
 18 22  1  1
  2  6  1  0
  4 23  1  0
 10 11  1  0
 23 24  1  0
  1 25  1  0
 11 12  2  0
 25 26  1  0
 12  7  1  0
  9 27  1  0
 13 14  2  0
 27 28  1  0
  5  6  2  0
 10 29  1  0
  6  8  1  0
 29 30  1  0
M  CHG  2  18   1  22  -1
M  END
>  <chembl_id>  (20) 
CHEMBL486191

$$$$
CHEMBL512752
     RDKit          2D

 21 23  0  0  0  0  0  0  0  0999 V2000
   -5.2223   -3.3791    0.0000 C   0  0  0  0  0  0  0  0  0  0  0  0
   -5.2234   -4.2065    0.0000 C   0  0  0  0  0  0  0  0  0  0  0  0
   -4.5086   -4.6194    0.0000 C   0  0  0  0  0  0  0  0  0  0  0  0
   -4.5104   -2.9664    0.0000 C   0  0  0  0  0  0  0  0  0  0  0  0
   -3.7950   -3.3755    0.0000 C   0  0  0  0  0  0  0  0  0  0  0  0
   -3.7943   -4.2023    0.0000 C   0  0  0  0  0  0  0  0  0  0  0  0
   -3.0790   -4.6133    0.0000 N   0  0  0  0  0  0  0  0  0  0  0  0
   -2.3639   -4.1985    0.0000 C   0  0  0  0  0  0  0  0  0  0  0  0
   -2.3687   -3.3686    0.0000 C   0  0  0  0  0  0  0  0  0  0  0  0
   -3.0846   -2.9613    0.0000 N   0  0  0  0  0  0  0  0  0  0  0  0
   -3.0890   -2.1364    0.0000 O   0  0  0  0  0  0  0  0  0  0  0  0
   -3.0772   -5.4383    0.0000 O   0  0  0  0  0  0  0  0  0  0  0  0
   -1.6514   -4.6041    0.0000 C   0  0  0  0  0  0  0  0  0  0  0  0
   -1.6496   -5.4303    0.0000 C   0  0  0  0  0  0  0  0  0  0  0  0
   -0.9344   -5.8399    0.0000 C   0  0  0  0  0  0  0  0  0  0  0  0
   -0.2205   -5.4246    0.0000 C   0  0  0  0  0  0  0  0  0  0  0  0
   -0.2264   -4.5953    0.0000 C   0  0  0  0  0  0  0  0  0  0  0  0
   -0.9422   -4.1894    0.0000 C   0  0  0  0  0  0  0  0  0  0  0  0
   -1.6568   -2.9517    0.0000 C   0  0  0  0  0  0  0  0  0  0  0  0
   -0.9458   -2.5333    0.0000 N   0  0  0  0  0  0  0  0  0  0  0  0
    0.4961   -5.8333    0.0000 Cl  0  0  0  0  0  0  0  0  0  0  0  0
 10  5  1  0
 10 11  1  0
  2  3  1  0
  7 12  1  0
  5  6  1  0
  3  6  2  0
 13 14  2  0
  6  7  1  0
 14 15  1  0
  1  2  2  0
 15 16  2  0
  7  8  2  0
 16 17  1  0
  5  4  2  0
 17 18  2  0
 18 13  1  0
  8 13  1  0
  8  9  1  0
  9 19  1  0
  4  1  1  0
 19 20  3  0
  9 10  2  0
 16 21  1  0
M  CHG  4   7   1  10   1  11  -1  12  -1
M  END
>  <chembl_id>  (21) 
CHEMBL512752

$$$$
CHEMBL573434
     RDKit          2D

 45 47  0  0  0  0  0  0  0  0999 V2000
   15.2685   -1.5481    0.0000 N   0  0  0  0  0  0  0  0  0  0  0  0
   15.2372   -0.7257    0.0000 N   0  0  0  0  0  0  0  0  0  0  0  0
   15.9997   -1.9345    0.0000 C   0  0  0  0  0  0  0  0  0  0  0  0
   16.6998   -1.4936    0.0000 C   0  0  0  0  0  0  0  0  0  0  0  0
   17.4311   -1.8799    0.0000 C   0  0  0  0  0  0  0  0  0  0  0  0
   16.0331   -2.7634    0.0000 O   0  0  0  0  0  0  0  0  0  0  0  0
   18.1310   -1.4390    0.0000 C   0  0  0  0  0  0  0  0  0  0  0  0
   18.8623   -1.8206    0.0000 N   0  0  0  0  0  0  0  0  0  0  0  0
   18.0954   -0.6144    0.0000 O   0  0  0  0  0  0  0  0  0  0  0  0
   19.5532   -1.3822    0.0000 C   0  0  0  0  0  0  0  0  0  0  0  0
   19.5219   -0.5598    0.0000 C   0  0  0  0  0  0  0  0  0  0  0  0
   20.2198   -0.1125    0.0000 C   0  0  0  0  0  0  0  0  0  0  0  0
   20.1884    0.7099    0.0000 C   0  0  0  0  0  0  0  0  0  0  0  0
   19.4571    1.0915    0.0000 C   0  0  0  0  0  0  0  0  0  0  0  0
   18.7572    0.6553    0.0000 C   0  0  0  0  0  0  0  0  0  0  0  0
   18.7905   -0.1736    0.0000 C   0  0  0  0  0  0  0  0  0  0  0  0
   18.8936   -2.6431    0.0000 C   0  0  0  0  0  0  0  0  0  0  0  0
   19.6201   -3.0293    0.0000 C   0  0  0  0  0  0  0  0  0  0  0  0
   19.6604   -3.8540    0.0000 C   0  0  0  0  0  0  0  0  0  0  0  0
   20.3869   -4.2355    0.0000 C   0  0  0  0  0  0  0  0  0  0  0  0
   21.0826   -3.7972    0.0000 C   0  0  0  0  0  0  0  0  0  0  0  0
   21.0470   -2.9725    0.0000 C   0  0  0  0  0  0  0  0  0  0  0  0
   20.3201   -2.5885    0.0000 C   0  0  0  0  0  0  0  0  0  0  0  0
   15.9328   -0.2875    0.0000 C   0  0  0  0  0  0  0  0  0  0  0  0
   15.1702    0.9214    0.0000 N   0  0  0  0  0  0  0  0  0  0  0  0
   15.9015    0.5349    0.0000 C   0  0  0  0  0  0  0  0  0  0  0  0
   16.5973    0.9782    0.0000 C   0  0  0  0  0  0  0  0  0  0  0  0
   16.6642   -0.6689    0.0000 O   0  0  0  0  0  0  0  0  0  0  0  0
   15.1347    1.7460    0.0000 C   0  0  0  0  0  0  0  0  0  0  0  0
   13.7076    1.6892    0.0000 N   0  0  0  0  0  0  0  0  0  0  0  0
   14.4033    2.1275    0.0000 C   0  0  0  0  0  0  0  0  0  0  0  0
   14.3742    2.9542    0.0000 C   0  0  0  0  0  0  0  0  0  0  0  0
   15.8369    2.1862    0.0000 O   0  0  0  0  0  0  0  0  0  0  0  0
   12.9764    2.0707    0.0000 C   0  0  0  0  0  0  0  0  0  0  0  0
   12.9408    2.8953    0.0000 O   0  0  0  0  0  0  0  0  0  0  0  0
   12.2813    1.6347    0.0000 N   0  0  0  0  0  0  0  0  0  0  0  0
   11.5499    2.0162    0.0000 C   0  0  0  0  0  0  0  0  0  0  0  0
   10.8542    1.5779    0.0000 C   0  0  0  0  0  0  0  0  0  0  0  0
   10.8855    0.7555    0.0000 C   0  0  0  0  0  0  0  0  0  0  0  0
   11.6169    0.3692    0.0000 C   0  0  0  0  0  0  0  0  0  0  0  0
   12.3168    0.8100    0.0000 C   0  0  0  0  0  0  0  0  0  0  0  0
   14.5697   -1.9908    0.0000 C   0  0  0  0  0  0  0  0  0  0  0  0
   14.6018   -2.8155    0.0000 C   0  0  0  0  0  0  0  0  0  0  0  0
   13.9030   -3.2533    0.0000 O   0  0  0  0  0  0  0  0  0  0  0  0
   15.3327   -3.1977    0.0000 N   0  0  0  0  0  0  0  0  0  0  0  0
  3  6  2  0
  7  8  1  0
  7  9  2  0
 10 11  1  0
 11 12  2  0
 12 13  1  0
 13 14  2  0
 14 15  1  0
 15 16  2  0
 11 16  1  0
  8 10  1  0
 17 18  1  0
 18 19  2  0
 19 20  1  0
 20 21  2  0
 21 22  1  0
 22 23  2  0
 18 23  1  0
  8 17  1  0
  5  7  1  0
  1  3  1  0
 25 26  1  0
 24 26  1  0
 26 27  1  1
 24 28  2  0
 30 31  1  0
 29 31  1  0
 31 32  1  1
 29 33  2  0
 25 29  1  0
 34 35  2  0
 36 37  1  0
 37 38  1  0
 38 39  1  0
 39 40  1  0
 40 41  1  0
 36 41  1  0
 34 36  1  0
 30 34  1  0
  2 24  1  0
  1 42  1  0
  1  2  1  0
 42 43  1  0
  3  4  1  0
 43 44  2  0
  4  5  2  0
 43 45  1  0
M  END
>  <chembl_id>  (22) 
CHEMBL573434

$$$$
CHEMBL1159702
     RDKit          2D

 33 36  0  0  0  0  0  0  0  0999 V2000
    5.3292   -3.2875    0.0000 C   0  0  0  0  0  0  0  0  0  0  0  0
    5.1917   -7.0375    0.0000 C   0  0  0  0  0  0  0  0  0  0  0  0
    4.7292   -2.7250    0.0000 N   0  0  0  0  0  0  0  0  0  0  0  0
    5.0042   -7.8292    0.0000 N   0  0  0  0  0  0  0  0  0  0  0  0
    4.5875   -6.4750    0.0000 N   0  0  0  0  0  0  0  0  0  0  0  0
    4.3542   -4.3167    0.0000 N   0  0  0  0  0  0  0  0  0  0  0  0
    4.9125   -1.9292    0.0000 C   0  0  0  0  0  0  0  0  0  0  0  0
    6.1167   -3.0417    0.0000 O   0  0  0  0  0  0  0  0  0  0  0  0
    4.4917   -0.5667    0.0000 C   0  0  0  0  0  0  0  0  0  0  0  0
    2.3667   -6.3667    0.0000 C   0  0  0  0  0  0  0  0  0  0  0  0
    4.3042   -1.3667    0.0000 C   0  0  0  0  0  0  0  0  0  0  0  0
    5.1417   -4.0792    0.0000 C   0  0  0  0  0  0  0  0  0  0  0  0
    3.1542   -6.1542    0.0000 C   0  0  0  0  0  0  0  0  0  0  0  0
    5.9792   -6.7917    0.0000 N   0  0  0  0  0  0  0  0  0  0  0  0
    1.7875   -5.7917    0.0000 C   0  0  0  0  0  0  0  0  0  0  0  0
    5.2792   -0.3292    0.0000 C   0  0  0  0  0  0  0  0  0  0  0  0
    5.8792   -0.8792    0.0000 C   0  0  0  0  0  0  0  0  0  0  0  0
    2.0000   -5.0042    0.0000 C   0  0  0  0  0  0  0  0  0  0  0  0
    3.3667   -5.3542    0.0000 C   0  0  0  0  0  0  0  0  0  0  0  0
    4.1625   -5.1167    0.0000 C   0  0  0  0  0  0  0  0  0  0  0  0
    5.6917   -1.6875    0.0000 C   0  0  0  0  0  0  0  0  0  0  0  0
    2.8000   -4.7917    0.0000 C   0  0  0  0  0  0  0  0  0  0  0  0
    2.1542   -7.1542    0.0000 C   0  0  0  0  0  0  0  0  0  0  0  0
    3.8875   -0.0042    0.0000 C   0  0  0  0  0  0  0  0  0  0  0  0
    6.1625   -5.9917    0.0000 C   0  0  0  0  0  0  0  0  0  0  0  0
    5.7417   -4.6417    0.0000 C   0  0  0  0  0  0  0  0  0  0  0  0
    1.0000   -6.0042    0.0000 C   0  0  0  0  0  0  0  0  0  0  0  0
    5.4667    0.4750    0.0000 C   0  0  0  0  0  0  0  0  0  0  0  0
    5.5542   -5.4375    0.0000 C   0  0  0  0  0  0  0  0  0  0  0  0
    4.0667    0.7875    0.0000 C   0  0  0  0  0  0  0  0  0  0  0  0
    1.3542   -7.3667    0.0000 C   0  0  0  0  0  0  0  0  0  0  0  0
    4.8625    1.0333    0.0000 C   0  0  0  0  0  0  0  0  0  0  0  0
    0.7875   -6.8042    0.0000 C   0  0  0  0  0  0  0  0  0  0  0  0
  2 14  2  0
  3  1  1  0
  4  2  1  0
  5  2  1  0
  6 12  1  0
  7  3  1  0
  8  1  2  0
  9 11  2  0
 10 13  2  0
 11  7  1  0
 12  1  1  0
 13 19  1  0
 14 25  1  0
 15 18  2  0
 16 17  2  0
 17 21  1  0
 18 22  1  0
 19 20  1  0
 20  6  1  0
 21  7  2  0
 22 19  2  0
 23 10  1  0
 24  9  1  0
 25 29  1  0
 12 26  1  6
 27 15  1  0
 28 16  1  0
 29 26  1  0
 30 24  2  0
 31 23  2  0
 32 28  2  0
 33 27  2  0
 16  9  1  0
 15 10  1  0
 32 30  1  0
 31 33  1  0
M  END
>  <chembl_id>  (23) 
CHEMBL1159702

$$$$
CHEMBL1190313
     RDKit          2D

 24 27  0  0  0  0  0  0  0  0999 V2000
    1.2274   -0.6045    0.0000 C   0  0  0  0  0  0  0  0  0  0  0  0
    0.0000   -1.3190    0.0000 S   0  0  0  0  0  0  0  0  0  0  0  0
   -1.2274   -0.6045    0.0000 C   0  0  0  0  0  0  0  0  0  0  0  0
    1.2274    0.8244    0.0000 C   0  0  0  0  0  0  0  0  0  0  0  0
    2.4732   -1.3190    0.0000 C   0  0  0  0  0  0  0  0  0  0  0  0
   -5.0029   -1.3524    0.0000 N   0  0  0  0  0  0  0  0  0  0  0  0
   -1.2274    0.8244    0.0000 C   0  0  0  0  0  0  0  0  0  0  0  0
   -2.4915   -1.3190    0.0000 C   0  0  0  0  0  0  0  0  0  0  0  0
   -3.7006   -0.6045    0.0000 C   0  0  0  0  0  0  0  0  0  0  0  0
    3.7372   -0.6045    0.0000 N   0  0  0  0  0  0  0  0  0  0  0  0
    2.4670   -2.8205    0.0000 N   0  0  0  0  0  0  0  0  0  0  0  0
    2.4732    1.5389    0.0000 N   0  0  0  0  0  0  0  0  0  0  0  0
   -2.4915    1.5389    0.0000 C   0  0  0  0  0  0  0  0  0  0  0  0
   -5.0053   -2.5524    0.0000 O   0  0  0  0  0  0  0  0  0  0  0  0
    3.7372    0.8244    0.0000 C   0  0  0  0  0  0  0  0  0  0  0  0
   -6.0412   -0.7506    0.0000 O   0  0  0  0  0  0  0  0  0  0  0  0
    3.7631   -3.5772    0.0000 C   0  0  0  0  0  0  0  0  0  0  0  0
   -3.7006    0.8244    0.0000 C   0  0  0  0  0  0  0  0  0  0  0  0
    3.7591   -5.0772    0.0000 C   0  0  0  0  0  0  0  0  0  0  0  0
    5.0561   -5.8307    0.0000 C   0  0  0  0  0  0  0  0  0  0  0  0
    5.0528   -7.0307    0.0000 Br  0  0  0  0  0  0  0  0  0  0  0  0
    6.3613   -3.5843    0.0000 C   0  0  0  0  0  0  0  0  0  0  0  0
    5.0643   -2.8308    0.0000 C   0  0  0  0  0  0  0  0  0  0  0  0
    6.3572   -5.0843    0.0000 C   0  0  0  0  0  0  0  0  0  0  0  0
  1  2  1  0
  2  3  1  0
  1  4  2  0
  1  5  1  0
  3  7  2  0
  4  7  1  0
  3  8  1  0
  6  9  1  0
  8  9  2  0
  5 10  2  0
  5 11  1  0
  4 12  1  0
  7 13  1  0
  6 14  1  0
 10 15  1  0
 12 15  2  0
  6 16  2  0
 11 17  1  0
  9 18  1  0
 13 18  2  0
 17 19  2  0
 19 20  1  0
 20 21  1  0
 17 23  1  0
 22 23  2  0
 20 24  2  0
 22 24  1  0
M  CHG  2   6   1  14  -1
M  END
>  <chembl_id>  (24) 
CHEMBL1190313

$$$$
CHEMBL1207974
     RDKit          2D

 32 35  0  0  0  0  0  0  0  0999 V2000
    6.0921   -9.9418    0.0000 C   0  0  0  0  0  0  0  0  0  0  0  0
    5.3786   -9.5289    0.0000 C   0  0  0  0  0  0  0  0  0  0  0  0
    4.6662   -9.9403    0.0000 C   0  0  0  0  0  0  0  0  0  0  0  0
    4.6662  -10.7645    0.0000 C   0  0  0  0  0  0  0  0  0  0  0  0
    5.3846  -11.1755    0.0000 C   0  0  0  0  0  0  0  0  0  0  0  0
    6.0940  -10.7619    0.0000 C   0  0  0  0  0  0  0  0  0  0  0  0
    6.6838   -9.3608    0.0000 C   0  0  0  0  0  0  0  0  0  0  0  0
    7.5089   -9.3606    0.0000 C   0  0  0  0  0  0  0  0  0  0  0  0
    7.9190   -8.6500    0.0000 C   0  0  0  0  0  0  0  0  0  0  0  0
    7.5073   -7.9365    0.0000 C   0  0  0  0  0  0  0  0  0  0  0  0
    6.6802   -7.9393    0.0000 C   0  0  0  0  0  0  0  0  0  0  0  0
    6.2727   -8.6518    0.0000 C   0  0  0  0  0  0  0  0  0  0  0  0
    8.2027   -9.8011    0.0000 C   0  0  0  0  0  0  0  0  0  0  0  0
    8.1657  -10.6272    0.0000 C   0  0  0  0  0  0  0  0  0  0  0  0
    8.8616  -11.0704    0.0000 C   0  0  0  0  0  0  0  0  0  0  0  0
    9.5949  -10.6886    0.0000 C   0  0  0  0  0  0  0  0  0  0  0  0
    9.6280   -9.8593    0.0000 C   0  0  0  0  0  0  0  0  0  0  0  0
    8.9314   -9.4198    0.0000 N   0  0  0  0  0  0  0  0  0  0  0  0
   10.3589   -9.4750    0.0000 C   0  0  0  0  0  0  0  0  0  0  0  0
   11.0572   -9.9158    0.0000 O   0  0  0  0  0  0  0  0  0  0  0  0
   10.3916   -8.6498    0.0000 O   0  0  0  0  0  0  0  0  0  0  0  0
    6.8104  -11.1723    0.0000 O   0  0  0  0  0  0  0  0  0  0  0  0
    6.8132  -11.9981    0.0000 C   0  0  0  0  0  0  0  0  0  0  0  0
    6.0994  -12.4133    0.0000 C   0  0  0  0  0  0  0  0  0  0  0  0
    5.3872  -11.9997    0.0000 C   0  0  0  0  0  0  0  0  0  0  0  0
    4.6739  -12.4143    0.0000 C   0  0  0  0  0  0  0  0  0  0  0  0
    4.6763  -13.2410    0.0000 C   0  0  0  0  0  0  0  0  0  0  0  0
    5.3978  -13.6512    0.0000 C   0  0  0  0  0  0  0  0  0  0  0  0
    6.1082  -13.2344    0.0000 C   0  0  0  0  0  0  0  0  0  0  0  0
    3.9511   -9.5274    0.0000 Cl  0  0  0  0  0  0  0  0  0  0  0  0
    3.9630  -13.6572    0.0000 Br  0  0  0  0  0  0  0  0  0  0  0  0
    6.8269  -13.6409    0.0000 F   0  0  0  0  0  0  0  0  0  0  0  0
  7  8  1  0
 16 17  1  0
  3  4  2  0
 17 18  2  0
 18 13  1  0
  8 13  1  0
  8  9  2  0
 17 19  1  0
  1  2  2  0
 19 20  2  0
  9 10  1  0
 19 21  1  0
  7  1  1  0
  4  5  1  0
  6 22  1  0
 10 11  2  0
 22 23  1  0
 23 24  1  0
 11 12  1  0
 24 25  2  0
 12  7  2  0
 25 26  1  0
  5  6  2  0
 26 27  2  0
  6  1  1  0
 27 28  1  0
 13 14  2  0
 28 29  2  0
 29 24  1  0
  2  3  1  0
  3 30  1  0
 14 15  1  0
 27 31  1  0
 29 32  1  0
 15 16  2  0
M  END
>  <chembl_id>  (25) 
CHEMBL1207974

$$$$
CHEMBL1215510
     RDKit          2D

 39 43  0  0  0  0  0  0  0  0999 V2000
   19.8375  -22.5667    0.0000 C   0  0  0  0  0  0  0  0  0  0  0  0
   19.0125  -22.5667    0.0000 N   0  0  0  0  0  0  0  0  0  0  0  0
   18.5958  -23.2792    0.0000 C   0  0  0  0  0  0  0  0  0  0  0  0
   20.2500  -23.2792    0.0000 C   0  0  0  0  0  0  0  0  0  0  0  0
   19.0125  -23.9917    0.0000 N   0  0  0  0  0  0  0  0  0  0  0  0
   14.8833  -25.4208    0.0000 N   0  0  0  0  0  0  0  0  0  0  0  0
   19.8375  -23.9917    0.0000 C   0  0  0  0  0  0  0  0  0  0  0  0
   17.7708  -23.2792    0.0000 C   0  0  0  0  0  0  0  0  0  0  0  0
   15.2958  -24.7083    0.0000 C   0  0  0  0  0  0  0  0  0  0  0  0
   18.5958  -21.8500    0.0000 C   0  0  0  0  0  0  0  0  0  0  0  0
   17.3583  -19.7083    0.0000 C   0  0  0  0  0  0  0  0  0  0  0  0
   20.2500  -21.8500    0.0000 O   0  0  0  0  0  0  0  0  0  0  0  0
   21.0750  -23.2792    0.0000 C   0  0  0  0  0  0  0  0  0  0  0  0
   14.0583  -25.4208    0.0000 O   0  0  0  0  0  0  0  0  0  0  0  0
   17.3583  -23.9917    0.0000 C   0  0  0  0  0  0  0  0  0  0  0  0
   15.2958  -26.1375    0.0000 O   0  0  0  0  0  0  0  0  0  0  0  0
   17.7708  -20.4208    0.0000 C   0  0  0  0  0  0  0  0  0  0  0  0
   22.3125  -23.9917    0.0000 C   0  0  0  0  0  0  0  0  0  0  0  0
   22.7250  -24.7083    0.0000 C   0  0  0  0  0  0  0  0  0  0  0  0
   16.1208  -24.7083    0.0000 C   0  0  0  0  0  0  0  0  0  0  0  0
   20.2500  -24.7083    0.0000 C   0  0  0  0  0  0  0  0  0  0  0  0
   16.5333  -19.7083    0.0000 O   0  0  0  0  0  0  0  0  0  0  0  0
   17.7708  -21.8500    0.0000 C   0  0  0  0  0  0  0  0  0  0  0  0
   19.0125  -21.1375    0.0000 C   0  0  0  0  0  0  0  0  0  0  0  0
   17.3583  -21.1375    0.0000 C   0  0  0  0  0  0  0  0  0  0  0  0
   18.5958  -20.4208    0.0000 C   0  0  0  0  0  0  0  0  0  0  0  0
   21.4875  -23.9917    0.0000 C   0  0  0  0  0  0  0  0  0  0  0  0
   16.5333  -23.9917    0.0000 C   0  0  0  0  0  0  0  0  0  0  0  0
   17.7708  -18.9917    0.0000 O   0  0  0  0  0  0  0  0  0  0  0  0
   23.5500  -24.7083    0.0000 C   0  0  0  0  0  0  0  0  0  0  0  0
   21.0750  -24.7083    0.0000 C   0  0  0  0  0  0  0  0  0  0  0  0
   14.8833  -23.9917    0.0000 C   0  0  0  0  0  0  0  0  0  0  0  0
   15.2958  -23.2792    0.0000 C   0  0  0  0  0  0  0  0  0  0  0  0
   16.1208  -23.2792    0.0000 C   0  0  0  0  0  0  0  0  0  0  0  0
   23.9625  -23.9917    0.0000 C   0  0  0  0  0  0  0  0  0  0  0  0
   23.9625  -25.4208    0.0000 C   0  0  0  0  0  0  0  0  0  0  0  0
   24.7875  -25.4208    0.0000 C   0  0  0  0  0  0  0  0  0  0  0  0
   24.7875  -23.9917    0.0000 C   0  0  0  0  0  0  0  0  0  0  0  0
   25.2000  -24.7083    0.0000 C   0  0  0  0  0  0  0  0  0  0  0  0
  2  1  1  0
  3  2  1  0
  4  1  1  0
  5  7  1  0
  6  9  1  0
  7  4  2  0
  8  3  1  0
  9 20  2  0
 10  2  1  0
 11 17  1  0
 12  1  2  0
 13  4  1  0
 14  6  1  0
 15  8  2  0
 16  6  2  0
 17 25  2  0
 18 27  1  0
 19 18  2  0
 20 28  1  0
 21  7  1  0
 22 11  2  0
 23 10  2  0
 24 10  1  0
 25 23  1  0
 26 24  2  0
 27 13  2  0
 28 15  1  0
 29 11  1  0
 30 19  1  0
 31 21  2  0
 32 33  2  0
 33 34  1  0
 34 28  2  0
 35 30  2  0
 36 30  1  0
 37 36  2  0
 38 35  1  0
 39 37  1  0
  3  5  2  0
 31 27  1  0
 26 17  1  0
 32  9  1  0
 39 38  2  0
M  CHG  2   6   1  14  -1
M  END
>  <chembl_id>  (26) 
CHEMBL1215510

$$$$
CHEMBL1255927
     RDKit          2D

 42 46  0  0  0  0  0  0  0  0999 V2000
   -0.9857    4.0645    0.0000 N   0  0  0  0  0  0  0  0  0  0  0  0
   -1.7001    4.4769    0.0000 C   0  0  0  0  0  0  0  0  0  0  0  0
   -2.4147    4.0645    0.0000 N   0  0  0  0  0  0  0  0  0  0  0  0
   -1.7001    5.3019    0.0000 N   0  0  0  0  0  0  0  0  0  0  0  0
    0.4433    0.7644    0.0000 N   0  0  0  0  0  0  0  0  0  0  0  0
    0.4433    1.5894    0.0000 C   0  0  0  0  0  0  0  0  0  0  0  0
    1.8722    1.5894    0.0000 O   0  0  0  0  0  0  0  0  0  0  0  0
    1.1578    2.0019    0.0000 C   0  0  0  0  0  0  0  0  0  0  0  0
   -0.2712    2.0019    0.0000 C   0  0  0  0  0  0  0  0  0  0  0  0
   -0.2712    2.8269    0.0000 C   0  0  0  0  0  0  0  0  0  0  0  0
   -0.9857    3.2394    0.0000 C   0  0  0  0  0  0  0  0  0  0  0  0
   -1.6963   -2.1242    0.0000 N   0  0  0  0  0  0  0  0  0  0  0  0
   -1.6976   -2.9527    0.0000 C   0  0  0  0  0  0  0  0  0  0  0  0
   -0.9814   -3.3665    0.0000 N   0  0  0  0  0  0  0  0  0  0  0  0
   -0.9857   -1.7107    0.0000 C   0  0  0  0  0  0  0  0  0  0  0  0
   -0.2666   -2.1206    0.0000 C   0  0  0  0  0  0  0  0  0  0  0  0
   -0.2664   -2.9530    0.0000 C   0  0  0  0  0  0  0  0  0  0  0  0
    0.5254   -3.2100    0.0000 N   0  0  0  0  0  0  0  0  0  0  0  0
    0.5250   -1.8631    0.0000 N   0  0  0  0  0  0  0  0  0  0  0  0
    1.0159   -2.5402    0.0000 C   0  0  0  0  0  0  0  0  0  0  0  0
    0.7791   -3.9951    0.0000 C   0  0  0  0  0  0  0  0  0  0  0  0
   -2.4121   -3.3652    0.0000 Cl  0  0  0  0  0  0  0  0  0  0  0  0
   -0.9857   -0.8857    0.0000 N   0  0  0  0  0  0  0  0  0  0  0  0
   -1.7001   -0.4732    0.0000 C   0  0  0  0  0  0  0  0  0  0  0  0
   -2.1163    0.2453    0.0000 C   0  0  0  0  0  0  0  0  0  0  0  0
   -2.5263   -0.4710    0.0000 C   0  0  0  0  0  0  0  0  0  0  0  0
    0.2242   -4.6055    0.0000 C   0  0  0  0  0  0  0  0  0  0  0  0
    0.4763   -5.3899    0.0000 C   0  0  0  0  0  0  0  0  0  0  0  0
    1.2838   -5.5674    0.0000 C   0  0  0  0  0  0  0  0  0  0  0  0
    1.8399   -4.9548    0.0000 C   0  0  0  0  0  0  0  0  0  0  0  0
    1.5886   -4.1647    0.0000 O   0  0  0  0  0  0  0  0  0  0  0  0
   -0.2712   -0.4732    0.0000 C   0  0  0  0  0  0  0  0  0  0  0  0
   -0.2712    0.3518    0.0000 C   0  0  0  0  0  0  0  0  0  0  0  0
   -0.9857    0.7644    0.0000 O   0  0  0  0  0  0  0  0  0  0  0  0
    1.1578    2.8269    0.0000 O   0  0  0  0  0  0  0  0  0  0  0  0
    1.8722    3.2394    0.0000 C   0  0  0  0  0  0  0  0  0  0  0  0
    1.8722    4.0645    0.0000 C   0  0  0  0  0  0  0  0  0  0  0  0
    2.5259    4.4375    0.0000 C   0  0  0  0  0  0  0  0  0  0  0  0
    2.5263    5.1899    0.0000 C   0  0  0  0  0  0  0  0  0  0  0  0
    1.8736    5.5674    0.0000 C   0  0  0  0  0  0  0  0  0  0  0  0
    1.2191    5.1867    0.0000 C   0  0  0  0  0  0  0  0  0  0  0  0
    1.2219    4.4355    0.0000 C   0  0  0  0  0  0  0  0  0  0  0  0
  1  2  1  0
  2  3  1  0
  2  4  2  0
  5  6  1  0
  6  8  1  0
  8  7  2  0
  6  9  1  1
  9 10  1  0
 10 11  1  0
 11  1  1  0
 12 13  2  0
 13 14  1  0
 14 17  2  0
 16 15  2  0
 15 12  1  0
 16 17  1  0
 17 18  1  0
 18 20  1  0
 19 16  1  0
 19 20  2  0
 18 21  1  0
 13 22  1  0
 15 23  1  0
 23 24  1  0
 25 24  1  0
 26 25  1  0
 24 26  1  0
 21 27  1  0
 21 31  1  0
 27 28  1  0
 28 29  1  0
 29 30  1  0
 30 31  1  0
 23 32  1  0
 32 33  1  0
 33  5  1  0
 33 34  2  0
  8 35  1  0
 35 36  1  0
 36 37  1  0
 37 38  2  0
 38 39  1  0
 39 40  2  0
 40 41  1  0
 41 42  2  0
 42 37  1  0
M  END
>  <chembl_id>  (27) 
CHEMBL1255927

$$$$
CHEMBL1348577
     RDKit          2D

 23 25  0  0  0  0  0  0  0  0999 V2000
    3.5149   -2.6304    0.0000 O   0  0  0  0  0  0  0  0  0  0  0  0
    2.2856   -4.8362    0.0000 O   0  0  0  0  0  0  0  0  0  0  0  0
    2.1800   -2.6304    0.0000 N   0  0  0  0  0  0  0  0  0  0  0  0
    3.5619   -0.9080    0.0000 N   0  0  0  0  0  0  0  0  0  0  0  0
    3.2599   -3.4151    0.0000 N   0  0  0  0  0  0  0  0  0  0  0  0
    5.1696    1.3215    0.0000 N   0  0  0  0  0  0  0  0  0  0  0  0
    5.5821    0.6070    0.0000 N   0  0  0  0  0  0  0  0  0  0  0  0
    2.8474   -2.1455    0.0000 C   0  0  0  0  0  0  0  0  0  0  0  0
    2.4349   -3.4151    0.0000 C   0  0  0  0  0  0  0  0  0  0  0  0
    2.8474   -1.3205    0.0000 C   0  0  0  0  0  0  0  0  0  0  0  0
    4.2764    0.3295    0.0000 C   0  0  0  0  0  0  0  0  0  0  0  0
    3.5619   -0.0830    0.0000 C   0  0  0  0  0  0  0  0  0  0  0  0
    1.9500   -4.0825    0.0000 C   0  0  0  0  0  0  0  0  0  0  0  0
    4.3626    1.1500    0.0000 C   0  0  0  0  0  0  0  0  0  0  0  0
    5.0300   -0.0061    0.0000 C   0  0  0  0  0  0  0  0  0  0  0  0
    1.8006   -5.5036    0.0000 C   0  0  0  0  0  0  0  0  0  0  0  0
    4.2764   -1.3205    0.0000 C   0  0  0  0  0  0  0  0  0  0  0  0
    2.1362   -6.2573    0.0000 C   0  0  0  0  0  0  0  0  0  0  0  0
    0.9801   -5.4174    0.0000 C   0  0  0  0  0  0  0  0  0  0  0  0
    5.5051    2.0752    0.0000 C   0  0  0  0  0  0  0  0  0  0  0  0
    1.6513   -6.9247    0.0000 C   0  0  0  0  0  0  0  0  0  0  0  0
    0.4952   -6.0848    0.0000 C   0  0  0  0  0  0  0  0  0  0  0  0
    0.8308   -6.8385    0.0000 C   0  0  0  0  0  0  0  0  0  0  0  0
  1  5  1  0
  1  8  1  0
  2 13  1  0
  2 16  1  0
  3  8  2  0
  3  9  1  0
  4 10  1  0
  4 12  1  0
  4 17  1  0
  5  9  2  0
  6  7  1  0
  6 14  1  0
  6 20  1  0
  7 15  2  0
  8 10  1  0
  9 13  1  0
 11 12  1  0
 11 14  2  0
 11 15  1  0
 16 18  2  0
 16 19  1  0
 18 21  1  0
 19 22  2  0
 21 23  2  0
 22 23  1  0
M  END
>  <chembl_id>  (28) 
CHEMBL1348577

$$$$
CHEMBL1429996
     RDKit          2D

 22 22  0  0  0  0  0  0  0  0999 V2000
   -1.0938   -3.5067    0.0000 Cl  0  0  0  0  0  0  0  0  0  0  0  0
    0.3351   -1.0317    0.0000 F   0  0  0  0  0  0  0  0  0  0  0  0
    1.7640   -2.6817    0.0000 O   0  0  0  0  0  0  0  0  0  0  0  0
    1.0496   -1.4442    0.0000 O   0  0  0  0  0  0  0  0  0  0  0  0
    3.1930   -3.5067    0.0000 O   0  0  0  0  0  0  0  0  0  0  0  0
    4.6219   -3.5067    0.0000 O   0  0  0  0  0  0  0  0  0  0  0  0
    3.9075   -2.2692    0.0000 N   0  0  0  0  0  0  0  0  0  0  0  0
    5.3364   -2.2692    0.0000 N   0  0  0  0  0  0  0  0  0  0  0  0
   -0.3794   -2.2692    0.0000 C   0  0  0  0  0  0  0  0  0  0  0  0
   -1.0938   -2.6817    0.0000 C   0  0  0  0  0  0  0  0  0  0  0  0
   -0.3794   -1.4442    0.0000 C   0  0  0  0  0  0  0  0  0  0  0  0
    0.3351   -2.6817    0.0000 C   0  0  0  0  0  0  0  0  0  0  0  0
    1.0496   -2.2692    0.0000 C   0  0  0  0  0  0  0  0  0  0  0  0
   -1.8083   -2.2692    0.0000 C   0  0  0  0  0  0  0  0  0  0  0  0
   -1.0938   -1.0317    0.0000 C   0  0  0  0  0  0  0  0  0  0  0  0
   -1.8083   -1.4442    0.0000 C   0  0  0  0  0  0  0  0  0  0  0  0
    3.1930   -2.6817    0.0000 C   0  0  0  0  0  0  0  0  0  0  0  0
    2.4785   -2.2692    0.0000 C   0  0  0  0  0  0  0  0  0  0  0  0
    4.6219   -2.6817    0.0000 C   0  0  0  0  0  0  0  0  0  0  0  0
    6.0509   -2.6817    0.0000 C   0  0  0  0  0  0  0  0  0  0  0  0
    6.7653   -2.2692    0.0000 C   0  0  0  0  0  0  0  0  0  0  0  0
    6.0509   -3.5067    0.0000 C   0  0  0  0  0  0  0  0  0  0  0  0
  1 10  1  0
  2 11  1  0
  3 13  1  0
  3 18  1  0
  4 13  2  0
  5 17  2  0
  6 19  2  0
  7 17  1  0
  7 19  1  0
  8 19  1  0
  8 20  1  0
  9 10  2  0
  9 11  1  0
  9 12  1  0
 10 14  1  0
 11 15  2  0
 12 13  1  0
 14 16  2  0
 15 16  1  0
 17 18  1  0
 20 21  1  0
 20 22  1  0
M  END
>  <chembl_id>  (29) 
CHEMBL1429996

$$$$
CHEMBL1462590
     RDKit          2D

 19 20  0  0  0  0  0  0  0  0999 V2000
   -0.0296    0.5866    0.0000 S   0  0  0  0  0  0  0  0  0  0  0  0
   -3.6019    2.6491    0.0000 O   0  0  0  0  0  0  0  0  0  0  0  0
   -4.3164    1.4116    0.0000 O   0  0  0  0  0  0  0  0  0  0  0  0
   -0.7441   -0.6509    0.0000 N   0  0  0  0  0  0  0  0  0  0  0  0
   -0.7441   -2.3009    0.0000 N   0  0  0  0  0  0  0  0  0  0  0  0
   -3.6019    1.8241    0.0000 N   0  0  0  0  0  0  0  0  0  0  0  0
   -0.7441    0.1741    0.0000 C   0  0  0  0  0  0  0  0  0  0  0  0
   -1.4585    0.5866    0.0000 C   0  0  0  0  0  0  0  0  0  0  0  0
   -2.8875    1.4116    0.0000 C   0  0  0  0  0  0  0  0  0  0  0  0
   -2.1730    0.1741    0.0000 C   0  0  0  0  0  0  0  0  0  0  0  0
   -1.4585    1.4116    0.0000 C   0  0  0  0  0  0  0  0  0  0  0  0
   -0.0296   -1.0634    0.0000 C   0  0  0  0  0  0  0  0  0  0  0  0
   -1.4585   -1.0634    0.0000 C   0  0  0  0  0  0  0  0  0  0  0  0
   -2.8875    0.5866    0.0000 C   0  0  0  0  0  0  0  0  0  0  0  0
   -2.1730    1.8241    0.0000 C   0  0  0  0  0  0  0  0  0  0  0  0
   -0.0296   -1.8884    0.0000 C   0  0  0  0  0  0  0  0  0  0  0  0
   -1.4585   -1.8884    0.0000 C   0  0  0  0  0  0  0  0  0  0  0  0
   -0.7441   -3.1259    0.0000 C   0  0  0  0  0  0  0  0  0  0  0  0
   -0.0296   -3.5384    0.0000 C   0  0  0  0  0  0  0  0  0  0  0  0
  1  7  2  0
  2  6  1  0
  3  6  2  0
  4  7  1  0
  4 12  1  0
  4 13  1  0
  5 16  1  0
  5 17  1  0
  5 18  1  0
  6  9  1  0
  7  8  1  0
  8 10  2  0
  8 11  1  0
  9 14  2  0
  9 15  1  0
 10 14  1  0
 11 15  2  0
 12 16  1  0
 13 17  1  0
 18 19  1  0
M  CHG  2   2  -1   6   1
M  END
>  <chembl_id>  (30) 
CHEMBL1462590

$$$$
CHEMBL1517700
     RDKit          2D

 26 29  0  0  0  0  0  0  0  0999 V2000
    3.8694    2.4479    0.0000 S   0  0  0  0  0  0  0  0  0  0  0  0
    5.3685    0.1304    0.0000 F   0  0  0  0  0  0  0  0  0  0  0  0
    6.7975    2.6054    0.0000 F   0  0  0  0  0  0  0  0  0  0  0  0
    2.5595    0.3515    0.0000 O   0  0  0  0  0  0  0  0  0  0  0  0
   -0.6150    1.9634    0.0000 O   0  0  0  0  0  0  0  0  0  0  0  0
   -1.1418   -1.2040    0.0000 O   0  0  0  0  0  0  0  0  0  0  0  0
    3.8694    1.1130    0.0000 N   0  0  0  0  0  0  0  0  0  0  0  0
    2.5595    1.7804    0.0000 N   0  0  0  0  0  0  0  0  0  0  0  0
    0.0525    0.6535    0.0000 N   0  0  0  0  0  0  0  0  0  0  0  0
    4.6541    1.3679    0.0000 C   0  0  0  0  0  0  0  0  0  0  0  0
    4.6541    2.1929    0.0000 C   0  0  0  0  0  0  0  0  0  0  0  0
    3.3845    1.7804    0.0000 C   0  0  0  0  0  0  0  0  0  0  0  0
    5.3685    0.9554    0.0000 C   0  0  0  0  0  0  0  0  0  0  0  0
    1.3220    1.0660    0.0000 C   0  0  0  0  0  0  0  0  0  0  0  0
    5.3685    2.6054    0.0000 C   0  0  0  0  0  0  0  0  0  0  0  0
    2.1470    1.0660    0.0000 C   0  0  0  0  0  0  0  0  0  0  0  0
    6.0830    2.1929    0.0000 C   0  0  0  0  0  0  0  0  0  0  0  0
    6.0830    1.3679    0.0000 C   0  0  0  0  0  0  0  0  0  0  0  0
    0.0525    1.4785    0.0000 C   0  0  0  0  0  0  0  0  0  0  0  0
    0.8371    0.3985    0.0000 C   0  0  0  0  0  0  0  0  0  0  0  0
    0.8371    1.7334    0.0000 C   0  0  0  0  0  0  0  0  0  0  0  0
   -0.6150    0.1685    0.0000 C   0  0  0  0  0  0  0  0  0  0  0  0
   -0.5287   -0.6519    0.0000 C   0  0  0  0  0  0  0  0  0  0  0  0
    0.1857   -1.0644    0.0000 C   0  0  0  0  0  0  0  0  0  0  0  0
   -0.8063   -1.9576    0.0000 C   0  0  0  0  0  0  0  0  0  0  0  0
    0.0142   -1.8714    0.0000 C   0  0  0  0  0  0  0  0  0  0  0  0
  1 11  1  0
  1 12  1  0
  2 13  1  0
  3 17  1  0
  4 16  2  0
  5 19  2  0
  6 23  1  0
  6 25  1  0
  7 10  1  0
  7 12  2  0
  8 12  1  0
  8 16  1  0
  9 19  1  0
  9 20  1  0
  9 22  1  0
 10 11  2  0
 10 13  1  0
 11 15  1  0
 13 18  2  0
 14 16  1  0
 14 20  1  0
 14 21  1  0
 15 17  2  0
 17 18  1  0
 19 21  1  0
 22 23  1  0
 23 24  2  0
 24 26  1  0
 25 26  2  0
M  END
>  <chembl_id>  (31) 
CHEMBL1517700

$$$$
CHEMBL1521336
     RDKit          2D

 21 23  0  0  0  0  0  0  0  0999 V2000
   -1.9738    0.8498    0.0000 S   0  0  0  0  0  0  0  0  0  0  0  0
    0.1696   -0.3877    0.0000 N   0  0  0  0  0  0  0  0  0  0  0  0
   -0.5449   -1.6252    0.0000 N   0  0  0  0  0  0  0  0  0  0  0  0
   -0.5449    0.8498    0.0000 N   0  0  0  0  0  0  0  0  0  0  0  0
   -0.5449   -0.8002    0.0000 C   0  0  0  0  0  0  0  0  0  0  0  0
    0.1696    0.4373    0.0000 C   0  0  0  0  0  0  0  0  0  0  0  0
   -1.2593    0.4373    0.0000 C   0  0  0  0  0  0  0  0  0  0  0  0
   -1.2593   -0.3877    0.0000 C   0  0  0  0  0  0  0  0  0  0  0  0
    0.8841    0.8498    0.0000 C   0  0  0  0  0  0  0  0  0  0  0  0
    0.1226   -2.1101    0.0000 C   0  0  0  0  0  0  0  0  0  0  0  0
   -1.2123   -2.1101    0.0000 C   0  0  0  0  0  0  0  0  0  0  0  0
    0.8841    1.6748    0.0000 C   0  0  0  0  0  0  0  0  0  0  0  0
    1.5985    0.4373    0.0000 C   0  0  0  0  0  0  0  0  0  0  0  0
   -0.1324   -2.8948    0.0000 C   0  0  0  0  0  0  0  0  0  0  0  0
   -0.9574   -2.8948    0.0000 C   0  0  0  0  0  0  0  0  0  0  0  0
   -2.6883    0.4373    0.0000 C   0  0  0  0  0  0  0  0  0  0  0  0
    1.5985    2.0873    0.0000 C   0  0  0  0  0  0  0  0  0  0  0  0
    2.3130    0.8498    0.0000 C   0  0  0  0  0  0  0  0  0  0  0  0
    2.3130    1.6748    0.0000 C   0  0  0  0  0  0  0  0  0  0  0  0
   -2.6883   -0.3877    0.0000 C   0  0  0  0  0  0  0  0  0  0  0  0
   -3.4028    0.8498    0.0000 C   0  0  0  0  0  0  0  0  0  0  0  0
  1  7  1  0
  1 16  1  0
  2  5  2  0
  2  6  1  0
  3  5  1  0
  3 10  1  0
  3 11  1  0
  4  6  2  0
  4  7  1  0
  5  8  1  0
  6  9  1  0
  7  8  2  0
  9 12  2  0
  9 13  1  0
 10 14  1  0
 11 15  1  0
 12 17  1  0
 13 18  2  0
 14 15  1  0
 16 20  1  0
 16 21  1  0
 17 19  2  0
 18 19  1  0
M  END
>  <chembl_id>  (32) 
CHEMBL1521336

$$$$
CHEMBL1537250
     RDKit          2D

 30 33  0  0  0  0  0  0  0  0999 V2000
   -4.7183    4.0501    0.0000 S   0  0  0  0  0  0  0  0  0  0  0  0
   -2.5258    0.0152    0.0000 O   0  0  0  0  0  0  0  0  0  0  0  0
   -5.3314    3.4981    0.0000 O   0  0  0  0  0  0  0  0  0  0  0  0
   -4.1662    3.4370    0.0000 O   0  0  0  0  0  0  0  0  0  0  0  0
   -5.2703    4.6632    0.0000 O   0  0  0  0  0  0  0  0  0  0  0  0
   -3.1932    1.3252    0.0000 O   0  0  0  0  0  0  0  0  0  0  0  0
   -3.6057   -0.7694    0.0000 N   0  0  0  0  0  0  0  0  0  0  0  0
   -3.8606    0.0152    0.0000 C   0  0  0  0  0  0  0  0  0  0  0  0
   -2.7807   -0.7694    0.0000 C   0  0  0  0  0  0  0  0  0  0  0  0
   -4.1052    4.6021    0.0000 C   0  0  0  0  0  0  0  0  0  0  0  0
   -3.1932    0.5002    0.0000 C   0  0  0  0  0  0  0  0  0  0  0  0
   -5.1598    2.6911    0.0000 C   0  0  0  0  0  0  0  0  0  0  0  0
   -2.2958   -1.4368    0.0000 C   0  0  0  0  0  0  0  0  0  0  0  0
   -4.8168    1.0772    0.0000 C   0  0  0  0  0  0  0  0  0  0  0  0
   -4.6453    0.2702    0.0000 C   0  0  0  0  0  0  0  0  0  0  0  0
   -4.3752    2.4362    0.0000 C   0  0  0  0  0  0  0  0  0  0  0  0
   -5.7729    2.1391    0.0000 C   0  0  0  0  0  0  0  0  0  0  0  0
   -4.2767    5.4091    0.0000 C   0  0  0  0  0  0  0  0  0  0  0  0
   -3.3206    4.3472    0.0000 C   0  0  0  0  0  0  0  0  0  0  0  0
   -4.2037    1.6292    0.0000 C   0  0  0  0  0  0  0  0  0  0  0  0
   -5.6014    1.3321    0.0000 C   0  0  0  0  0  0  0  0  0  0  0  0
   -1.4753   -1.3506    0.0000 C   0  0  0  0  0  0  0  0  0  0  0  0
   -2.6313   -2.1905    0.0000 C   0  0  0  0  0  0  0  0  0  0  0  0
   -2.8790    5.7062    0.0000 C   0  0  0  0  0  0  0  0  0  0  0  0
   -3.6636    5.9611    0.0000 C   0  0  0  0  0  0  0  0  0  0  0  0
   -2.7075    4.8992    0.0000 C   0  0  0  0  0  0  0  0  0  0  0  0
   -0.9904   -2.0180    0.0000 C   0  0  0  0  0  0  0  0  0  0  0  0
   -2.1464   -2.8579    0.0000 C   0  0  0  0  0  0  0  0  0  0  0  0
   -1.3259   -2.7717    0.0000 C   0  0  0  0  0  0  0  0  0  0  0  0
   -2.2659    6.2582    0.0000 C   0  0  0  0  0  0  0  0  0  0  0  0
  1  3  1  0
  1  4  2  0
  1  5  2  0
  1 10  1  0
  2  9  1  0
  2 11  1  0
  3 12  1  0
  6 11  2  0
  7  8  1  0
  7  9  2  0
  8 11  1  0
  8 15  2  0
  9 13  1  0
 10 18  2  0
 10 19  1  0
 12 16  2  0
 12 17  1  0
 13 22  2  0
 13 23  1  0
 14 15  1  0
 14 20  2  0
 14 21  1  0
 16 20  1  0
 17 21  2  0
 18 25  1  0
 19 26  2  0
 22 27  1  0
 23 28  2  0
 24 25  2  0
 24 26  1  0
 24 30  1  0
 27 29  2  0
 28 29  1  0
M  END
>  <chembl_id>  (33) 
CHEMBL1537250

$$$$
CHEMBL1571063
     RDKit          2D

 30 32  0  0  0  0  0  0  0  0999 V2000
   -1.8258    0.4263    0.0000 S   0  0  0  0  0  0  0  0  0  0  0  0
    0.4556   -1.4158    0.0000 O   0  0  0  0  0  0  0  0  0  0  0  0
   -1.9973   -0.3806    0.0000 O   0  0  0  0  0  0  0  0  0  0  0  0
   -1.6542    1.2333    0.0000 O   0  0  0  0  0  0  0  0  0  0  0  0
    1.8757   -1.7963    0.0000 O   0  0  0  0  0  0  0  0  0  0  0  0
    2.7778   -1.2488    0.0000 O   0  0  0  0  0  0  0  0  0  0  0  0
    1.3488   -0.4238    0.0000 N   0  0  0  0  0  0  0  0  0  0  0  0
   -2.6327    0.5979    0.0000 N   0  0  0  0  0  0  0  0  0  0  0  0
    3.4922   -0.0113    0.0000 N   0  0  0  0  0  0  0  0  0  0  0  0
    0.5952   -0.0882    0.0000 C   0  0  0  0  0  0  0  0  0  0  0  0
    0.0431   -0.7013    0.0000 C   0  0  0  0  0  0  0  0  0  0  0  0
   -1.0188    0.2548    0.0000 C   0  0  0  0  0  0  0  0  0  0  0  0
   -0.7638   -0.5298    0.0000 C   0  0  0  0  0  0  0  0  0  0  0  0
    1.2626   -1.2443    0.0000 C   0  0  0  0  0  0  0  0  0  0  0  0
    0.3402    0.6964    0.0000 C   0  0  0  0  0  0  0  0  0  0  0  0
   -0.4667    0.8679    0.0000 C   0  0  0  0  0  0  0  0  0  0  0  0
    2.0633   -0.0113    0.0000 C   0  0  0  0  0  0  0  0  0  0  0  0
   -3.1848   -0.0152    0.0000 C   0  0  0  0  0  0  0  0  0  0  0  0
   -2.8877    1.3825    0.0000 C   0  0  0  0  0  0  0  0  0  0  0  0
   -3.9917    0.1563    0.0000 C   0  0  0  0  0  0  0  0  0  0  0  0
   -3.6946    1.5540    0.0000 C   0  0  0  0  0  0  0  0  0  0  0  0
    2.7778   -0.4238    0.0000 C   0  0  0  0  0  0  0  0  0  0  0  0
   -4.2467    0.9409    0.0000 C   0  0  0  0  0  0  0  0  0  0  0  0
   -4.5438   -0.4568    0.0000 C   0  0  0  0  0  0  0  0  0  0  0  0
   -3.9496    2.3386    0.0000 C   0  0  0  0  0  0  0  0  0  0  0  0
    4.2067   -0.4238    0.0000 C   0  0  0  0  0  0  0  0  0  0  0  0
    4.9212   -0.0113    0.0000 C   0  0  0  0  0  0  0  0  0  0  0  0
    5.6357   -0.4238    0.0000 C   0  0  0  0  0  0  0  0  0  0  0  0
    6.3501   -0.0113    0.0000 C   0  0  0  0  0  0  0  0  0  0  0  0
    5.6357   -1.2488    0.0000 C   0  0  0  0  0  0  0  0  0  0  0  0
  1  3  2  0
  1  4  2  0
  1  8  1  0
  1 12  1  0
  2 11  1  0
  2 14  1  0
  5 14  2  0
  6 22  2  0
  7 10  1  0
  7 14  1  0
  7 17  1  0
  8 18  1  0
  8 19  1  0
  9 22  1  0
  9 26  1  0
 10 11  2  0
 10 15  1  0
 11 13  1  0
 12 13  2  0
 12 16  1  0
 15 16  2  0
 17 22  1  0
 18 20  1  0
 19 21  1  0
 20 23  1  0
 20 24  1  0
 21 23  1  0
 21 25  1  0
 26 27  1  0
 27 28  1  0
 28 29  1  0
 28 30  1  0
M  END
>  <chembl_id>  (34) 
CHEMBL1571063

$$$$
CHEMBL1584544
     RDKit          2D

 23 25  0  0  0  0  0  0  0  0999 V2000
    3.7221   -2.1594    0.0000 O   0  0  0  0  0  0  0  0  0  0  0  0
   -0.2678   -2.9580    0.0000 O   0  0  0  0  0  0  0  0  0  0  0  0
    0.7941   -0.6670    0.0000 N   0  0  0  0  0  0  0  0  0  0  0  0
    1.5787   -1.7469    0.0000 C   0  0  0  0  0  0  0  0  0  0  0  0
    1.5787   -0.9219    0.0000 C   0  0  0  0  0  0  0  0  0  0  0  0
    0.7941   -2.0018    0.0000 C   0  0  0  0  0  0  0  0  0  0  0  0
    0.3091   -1.3344    0.0000 C   0  0  0  0  0  0  0  0  0  0  0  0
    2.2932   -2.1594    0.0000 C   0  0  0  0  0  0  0  0  0  0  0  0
    0.5391   -2.7865    0.0000 C   0  0  0  0  0  0  0  0  0  0  0  0
    2.2932   -0.5094    0.0000 C   0  0  0  0  0  0  0  0  0  0  0  0
    3.0076   -1.7469    0.0000 C   0  0  0  0  0  0  0  0  0  0  0  0
    0.5391    0.1177    0.0000 C   0  0  0  0  0  0  0  0  0  0  0  0
    3.0076   -0.9219    0.0000 C   0  0  0  0  0  0  0  0  0  0  0  0
   -0.5159   -1.3344    0.0000 C   0  0  0  0  0  0  0  0  0  0  0  0
   -0.2678    0.2892    0.0000 C   0  0  0  0  0  0  0  0  0  0  0  0
    1.0912   -3.3995    0.0000 C   0  0  0  0  0  0  0  0  0  0  0  0
   -0.5228    1.0738    0.0000 C   0  0  0  0  0  0  0  0  0  0  0  0
   -1.3298    1.2453    0.0000 C   0  0  0  0  0  0  0  0  0  0  0  0
    0.0293    1.6869    0.0000 C   0  0  0  0  0  0  0  0  0  0  0  0
    4.4366   -1.7469    0.0000 C   0  0  0  0  0  0  0  0  0  0  0  0
   -1.5847    2.0300    0.0000 C   0  0  0  0  0  0  0  0  0  0  0  0
   -0.2257    2.4715    0.0000 C   0  0  0  0  0  0  0  0  0  0  0  0
   -1.0327    2.6431    0.0000 C   0  0  0  0  0  0  0  0  0  0  0  0
  1 11  1  0
  1 20  1  0
  2  9  2  0
  3  5  1  0
  3  7  1  0
  3 12  1  0
  4  5  2  0
  4  6  1  0
  4  8  1  0
  5 10  1  0
  6  7  2  0
  6  9  1  0
  7 14  1  0
  8 11  2  0
  9 16  1  0
 10 13  2  0
 11 13  1  0
 12 15  1  0
 15 17  1  0
 17 18  2  0
 17 19  1  0
 18 21  1  0
 19 22  2  0
 21 23  2  0
 22 23  1  0
M  END
>  <chembl_id>  (35) 
CHEMBL1584544

$$$$
CHEMBL1607975
     RDKit          2D

 23 25  0  0  0  0  0  0  0  0999 V2000
    2.9302   -0.6335    0.0000 S   0  0  0  0  0  0  0  0  0  0  0  0
    2.2157   -1.0460    0.0000 O   0  0  0  0  0  0  0  0  0  0  0  0
    3.2657   -1.3872    0.0000 O   0  0  0  0  0  0  0  0  0  0  0  0
    2.6752    1.4860    0.0000 O   0  0  0  0  0  0  0  0  0  0  0  0
    1.6202    1.4629    0.0000 O   0  0  0  0  0  0  0  0  0  0  0  0
    2.4452    0.0339    0.0000 N   0  0  0  0  0  0  0  0  0  0  0  0
    0.3827    0.7484    0.0000 N   0  0  0  0  0  0  0  0  0  0  0  0
    3.7148   -0.3786    0.0000 C   0  0  0  0  0  0  0  0  0  0  0  0
    3.7148    0.4464    0.0000 C   0  0  0  0  0  0  0  0  0  0  0  0
    2.9302    0.7014    0.0000 C   0  0  0  0  0  0  0  0  0  0  0  0
    1.6202    0.0339    0.0000 C   0  0  0  0  0  0  0  0  0  0  0  0
    4.4292   -0.7911    0.0000 C   0  0  0  0  0  0  0  0  0  0  0  0
    4.4292    0.8589    0.0000 C   0  0  0  0  0  0  0  0  0  0  0  0
    1.2077    0.7484    0.0000 C   0  0  0  0  0  0  0  0  0  0  0  0
    5.1437   -0.3786    0.0000 C   0  0  0  0  0  0  0  0  0  0  0  0
    5.1437    0.4464    0.0000 C   0  0  0  0  0  0  0  0  0  0  0  0
   -0.0298    1.4629    0.0000 C   0  0  0  0  0  0  0  0  0  0  0  0
   -0.8525    1.4012    0.0000 C   0  0  0  0  0  0  0  0  0  0  0  0
    0.4350    2.1445    0.0000 C   0  0  0  0  0  0  0  0  0  0  0  0
   -1.4136    2.0060    0.0000 C   0  0  0  0  0  0  0  0  0  0  0  0
    0.1918    2.9329    0.0000 C   0  0  0  0  0  0  0  0  0  0  0  0
   -1.2906    2.8218    0.0000 C   0  0  0  0  0  0  0  0  0  0  0  0
   -0.5762    3.2343    0.0000 C   0  0  0  0  0  0  0  0  0  0  0  0
  1  2  2  0
  1  3  2  0
  1  6  1  0
  1  8  1  0
  4 10  2  0
  5 14  2  0
  6 10  1  0
  6 11  1  0
  7 14  1  0
  7 17  1  0
  8  9  2  0
  8 12  1  0
  9 10  1  0
  9 13  1  0
 11 14  1  0
 12 15  2  0
 13 16  2  0
 15 16  1  0
 17 18  1  0
 17 19  1  0
 18 20  1  0
 19 21  1  0
 20 22  1  0
 21 23  1  0
 22 23  1  0
M  END
>  <chembl_id>  (36) 
CHEMBL1607975

$$$$
CHEMBL1632598
     RDKit          2D

 31 36  0  0  0  0  0  0  0  0999 V2000
   -0.3707   -2.0202    0.0000 C   0  0  0  0  0  0  0  0  0  0  0  0
   -0.8803   -2.6690    0.0000 C   0  0  0  0  0  0  0  0  0  0  0  0
   -0.4180   -3.3553    0.0000 C   0  0  0  0  0  0  0  0  0  0  0  0
   -2.6301   -3.6187    0.0000 C   0  0  0  0  0  0  0  0  0  0  0  0
   -2.6313   -4.4459    0.0000 C   0  0  0  0  0  0  0  0  0  0  0  0
   -1.9165   -4.8586    0.0000 C   0  0  0  0  0  0  0  0  0  0  0  0
   -1.9183   -3.2059    0.0000 C   0  0  0  0  0  0  0  0  0  0  0  0
   -1.1982   -4.4413    0.0000 C   0  0  0  0  0  0  0  0  0  0  0  0
   -0.4109   -4.6921    0.0000 N   0  0  0  0  0  0  0  0  0  0  0  0
    0.0710   -4.0207    0.0000 C   0  0  0  0  0  0  0  0  0  0  0  0
    0.4044   -2.3025    0.0000 C   0  0  0  0  0  0  0  0  0  0  0  0
    0.3762   -3.1228    0.0000 N   0  0  0  0  0  0  0  0  0  0  0  0
    1.1478   -3.4032    0.0000 C   0  0  0  0  0  0  0  0  0  0  0  0
    1.6528   -2.7560    0.0000 C   0  0  0  0  0  0  0  0  0  0  0  0
    1.1933   -2.0757    0.0000 C   0  0  0  0  0  0  0  0  0  0  0  0
   -1.2898   -1.9441    0.0000 C   0  0  0  0  0  0  0  0  0  0  0  0
   -0.8700   -1.2343    0.0000 O   0  0  0  0  0  0  0  0  0  0  0  0
   -2.1146   -1.9356    0.0000 C   0  0  0  0  0  0  0  0  0  0  0  0
   -2.5890   -1.2657    0.0000 C   0  0  0  0  0  0  0  0  0  0  0  0
   -3.3761   -1.5123    0.0000 C   0  0  0  0  0  0  0  0  0  0  0  0
   -3.3847   -2.3373    0.0000 C   0  0  0  0  0  0  0  0  0  0  0  0
   -2.6030   -2.6002    0.0000 S   0  0  0  0  0  0  0  0  0  0  0  0
    0.8958   -4.0161    0.0000 O   0  0  0  0  0  0  0  0  0  0  0  0
   -0.3791   -1.1941    0.0000 C   0  0  0  0  0  0  0  0  0  0  0  0
    0.3346   -0.7758    0.0000 C   0  0  0  0  0  0  0  0  0  0  0  0
    0.3266    0.0496    0.0000 C   0  0  0  0  0  0  0  0  0  0  0  0
   -0.3936    0.4562    0.0000 C   0  0  0  0  0  0  0  0  0  0  0  0
   -1.1071    0.0316    0.0000 C   0  0  0  0  0  0  0  0  0  0  0  0
   -1.0956   -0.7924    0.0000 C   0  0  0  0  0  0  0  0  0  0  0  0
   -1.2208   -3.5667    0.0000 C   0  0  0  0  0  0  0  0  0  0  0  0
    1.0370    0.4690    0.0000 Br  0  0  0  0  0  0  0  0  0  0  0  0
 13 14  1  0
 14 15  1  0
 15 11  1  0
  7  4  2  0
  2 16  1  1
 30  8  2  0
 16 17  2  0
  3 12  1  1
 16 18  1  0
 18 19  2  0
 11  1  1  0
  4  5  1  0
  8  9  1  0
 19 20  1  0
 20 21  2  0
 21 22  1  0
 22 18  1  0
  9 10  1  0
 10 23  2  0
 10  3  1  0
  1 24  1  6
 24 25  2  0
 11 12  1  0
 25 26  1  0
  1  2  1  0
 26 27  2  0
  5  6  2  0
 27 28  1  0
  6  8  1  0
 28 29  2  0
 29 24  1  0
  2  3  1  0
 30  7  1  0
 12 13  1  0
  3 30  1  0
 26 31  1  0
M  END
>  <chembl_id>  (37) 
CHEMBL1632598

$$$$
CHEMBL1668016
     RDKit          2D

 24 26  0  0  0  0  0  0  0  0999 V2000
   -0.5897   -5.7309    0.0000 C   0  0  0  0  0  0  0  0  0  0  0  0
   -0.5897   -4.9017    0.0000 C   0  0  0  0  0  0  0  0  0  0  0  0
   -1.3055   -4.4892    0.0000 C   0  0  0  0  0  0  0  0  0  0  0  0
   -1.3055   -6.1434    0.0000 C   0  0  0  0  0  0  0  0  0  0  0  0
   -2.0256   -5.7309    0.0000 C   0  0  0  0  0  0  0  0  0  0  0  0
   -2.0235   -4.9052    0.0000 C   0  0  0  0  0  0  0  0  0  0  0  0
   -2.7364   -4.4924    0.0000 C   0  0  0  0  0  0  0  0  0  0  0  0
   -3.4518   -4.9042    0.0000 C   0  0  0  0  0  0  0  0  0  0  0  0
   -3.4498   -5.7330    0.0000 C   0  0  0  0  0  0  0  0  0  0  0  0
   -2.7364   -6.1420    0.0000 C   0  0  0  0  0  0  0  0  0  0  0  0
   -1.3045   -6.9684    0.0000 C   0  0  0  0  0  0  0  0  0  0  0  0
   -0.5895   -7.3800    0.0000 C   0  0  0  0  0  0  0  0  0  0  0  0
    0.1245   -6.9666    0.0000 N   0  0  0  0  0  0  0  0  0  0  0  0
    0.8767   -7.2955    0.0000 C   0  0  0  0  0  0  0  0  0  0  0  0
    1.4279   -6.6817    0.0000 C   0  0  0  0  0  0  0  0  0  0  0  0
    1.0145   -5.9677    0.0000 C   0  0  0  0  0  0  0  0  0  0  0  0
    0.2078   -6.1403    0.0000 C   0  0  0  0  0  0  0  0  0  0  0  0
    1.0514   -8.1017    0.0000 O   0  0  0  0  0  0  0  0  0  0  0  0
    2.2485   -6.7669    0.0000 C   0  0  0  0  0  0  0  0  0  0  0  0
    2.5850   -7.5201    0.0000 C   0  0  0  0  0  0  0  0  0  0  0  0
    3.4056   -7.6053    0.0000 C   0  0  0  0  0  0  0  0  0  0  0  0
    3.7421   -8.3586    0.0000 N   0  0  0  0  0  0  0  0  0  0  0  0
    3.8897   -6.9373    0.0000 O   0  0  0  0  0  0  0  0  0  0  0  0
    3.2580   -9.0266    0.0000 O   0  0  0  0  0  0  0  0  0  0  0  0
  1  2  2  0
 11 12  1  0
  5  6  1  0
 12 13  1  0
 13 14  1  0
  2  3  1  0
  6  7  1  0
  3  6  2  0
  7  8  2  0
 14 15  1  0
 15 16  2  0
 16 17  1  0
 17 13  1  0
  5  4  2  0
 14 18  2  0
  8  9  1  0
 15 19  1  0
  4  1  1  0
 19 20  1  0
  9 10  2  0
 20 21  1  0
 10  5  1  0
 21 22  1  0
 21 23  2  0
  4 11  1  0
 22 24  1  0
M  END
>  <chembl_id>  (38) 
CHEMBL1668016

$$$$
CHEMBL1710302
     RDKit          2D

 27 30  0  0  1  0  0  0  0  0999 V2000
    0.4286    2.3697    0.0000 N   0  0  0  0  0  0  0  0  0  0  0  0
    1.8575    3.1947    0.0000 N   0  0  0  0  0  0  0  0  0  0  0  0
    0.4286    4.8447    0.0000 C   0  0  0  0  0  0  0  0  0  0  0  0
   -0.2859    4.4322    0.0000 C   0  0  0  0  0  0  0  0  0  0  0  0
    0.4286    5.6697    0.0000 C   0  0  0  0  0  0  0  0  0  0  0  0
    0.4286    3.1947    0.0000 C   0  0  0  0  0  0  0  0  0  0  0  0
   -0.2859    3.6072    0.0000 C   0  0  0  0  0  0  0  0  0  0  0  0
   -1.0004    4.8447    0.0000 C   0  0  0  0  0  0  0  0  0  0  0  0
    1.1430    4.4322    0.0000 C   0  0  0  0  0  0  0  0  0  0  0  0
   -0.2859    6.0822    0.0000 C   0  0  0  0  0  0  0  0  0  0  0  0
    1.1430    6.0822    0.0000 C   0  0  0  0  0  0  0  0  0  0  0  0
   -1.0004    5.6697    0.0000 C   0  0  0  0  0  0  0  0  0  0  0  0
    1.1430    3.6072    0.0000 C   0  0  0  0  0  0  0  0  0  0  0  0
    1.1430    1.9572    0.0000 C   0  0  0  0  0  0  0  0  0  0  0  0
    1.8575    4.8447    0.0000 C   0  0  0  0  0  0  0  0  0  0  0  0
    1.8575    5.6697    0.0000 C   0  0  0  0  0  0  0  0  0  0  0  0
   -0.2859    1.9572    0.0000 C   0  0  0  0  0  0  0  0  0  0  0  0
    1.8575    2.3697    0.0000 C   0  0  0  0  0  0  0  0  0  0  0  0
   -0.2859    1.1322    0.0000 C   0  0  0  0  0  0  0  0  0  0  0  0
   -1.0004    0.7197    0.0000 C   0  0  0  0  0  0  0  0  0  0  0  0
   -1.7149   -0.5178    0.0000 C   0  0  0  0  0  0  0  0  0  0  0  0
   -1.0004   -0.1053    0.0000 C   0  0  0  0  0  0  0  0  0  0  0  0
   -1.7149   -1.3428    0.0000 C   0  0  0  0  0  0  0  0  0  0  0  0
   -2.4293   -0.1053    0.0000 C   0  0  0  0  0  0  0  0  0  0  0  0
   -2.4293   -1.7553    0.0000 C   0  0  0  0  0  0  0  0  0  0  0  0
   -3.1438   -0.5178    0.0000 C   0  0  0  0  0  0  0  0  0  0  0  0
   -3.1438   -1.3428    0.0000 C   0  0  0  0  0  0  0  0  0  0  0  0
  1  6  1  0
  1 14  1  0
  1 17  1  0
  2 13  1  0
  2 18  1  0
  3  4  1  0
  3  5  2  0
  3  9  1  0
  4  7  1  0
  4  8  2  0
  5 10  1  0
  5 11  1  0
  6  7  1  6
  6 13  1  0
  8 12  1  0
  9 15  2  0
 10 12  2  0
 11 16  2  0
 14 18  1  0
 15 16  1  0
 17 19  1  0
 19 20  1  0
 20 22  1  0
 21 22  1  0
 21 23  1  0
 21 24  1  0
 23 25  1  0
 24 26  1  0
 25 27  1  0
 26 27  1  0
M  END
>  <chembl_id>  (39) 
CHEMBL1710302

$$$$
CHEMBL1728501
     RDKit          2D

 17 18  0  0  0  0  0  0  0  0999 V2000
   -0.6279   -4.3942    0.0000 Cl  0  0  0  0  0  0  0  0  0  0  0  0
   -2.0568   -0.2692    0.0000 O   0  0  0  0  0  0  0  0  0  0  0  0
   -2.0568   -2.7442    0.0000 C   0  0  0  0  0  0  0  0  0  0  0  0
   -0.6279   -0.2692    0.0000 C   0  0  0  0  0  0  0  0  0  0  0  0
   -1.3424   -0.6817    0.0000 C   0  0  0  0  0  0  0  0  0  0  0  0
   -1.3424   -3.1567    0.0000 C   0  0  0  0  0  0  0  0  0  0  0  0
   -2.0568   -1.9192    0.0000 C   0  0  0  0  0  0  0  0  0  0  0  0
   -1.3424   -1.5067    0.0000 C   0  0  0  0  0  0  0  0  0  0  0  0
   -1.3424   -3.9817    0.0000 C   0  0  0  0  0  0  0  0  0  0  0  0
   -2.7713   -3.1567    0.0000 C   0  0  0  0  0  0  0  0  0  0  0  0
   -0.6279    0.5558    0.0000 C   0  0  0  0  0  0  0  0  0  0  0  0
    0.0866   -0.6817    0.0000 C   0  0  0  0  0  0  0  0  0  0  0  0
   -2.0568   -4.3942    0.0000 C   0  0  0  0  0  0  0  0  0  0  0  0
   -2.7713   -3.9817    0.0000 C   0  0  0  0  0  0  0  0  0  0  0  0
    0.0866    0.9683    0.0000 C   0  0  0  0  0  0  0  0  0  0  0  0
    0.8010   -0.2692    0.0000 C   0  0  0  0  0  0  0  0  0  0  0  0
    0.8010    0.5558    0.0000 C   0  0  0  0  0  0  0  0  0  0  0  0
  1  9  1  0
  2  5  2  0
  3  6  2  0
  7  3  1  0
  3 10  1  0
  4  5  1  0
  4 11  2  0
  4 12  1  0
  5  8  1  0
  6  9  1  0
  7  8  2  3
  9 13  2  0
 10 14  2  0
 11 15  1  0
 12 16  2  0
 13 14  1  0
 15 17  2  0
 16 17  1  0
M  END
>  <chembl_id>  (40) 
CHEMBL1728501

$$$$
CHEMBL1824954
     RDKit          2D

 36 40  0  0  0  0  0  0  0  0999 V2000
   10.5111   -7.8125    0.0000 C   0  0  0  0  0  0  0  0  0  0  0  0
   10.5099   -8.6398    0.0000 C   0  0  0  0  0  0  0  0  0  0  0  0
   11.2247   -9.0527    0.0000 C   0  0  0  0  0  0  0  0  0  0  0  0
   11.2229   -7.3997    0.0000 N   0  0  0  0  0  0  0  0  0  0  0  0
   12.7319   -8.8902    0.0000 N   0  0  0  0  0  0  0  0  0  0  0  0
   13.2160   -8.2160    0.0000 C   0  0  0  0  0  0  0  0  0  0  0  0
   12.7250   -7.5483    0.0000 C   0  0  0  0  0  0  0  0  0  0  0  0
   11.9383   -7.8088    0.0000 C   0  0  0  0  0  0  0  0  0  0  0  0
   11.9429   -8.6376    0.0000 C   0  0  0  0  0  0  0  0  0  0  0  0
   12.9755   -6.7622    0.0000 C   0  0  0  0  0  0  0  0  0  0  0  0
   14.0382   -8.2138    0.0000 O   0  0  0  0  0  0  0  0  0  0  0  0
   12.7276   -9.7129    0.0000 C   0  0  0  0  0  0  0  0  0  0  0  0
   12.0091  -10.1206    0.0000 C   0  0  0  0  0  0  0  0  0  0  0  0
   12.0039  -10.9449    0.0000 C   0  0  0  0  0  0  0  0  0  0  0  0
   12.7165  -11.3623    0.0000 C   0  0  0  0  0  0  0  0  0  0  0  0
   13.4358  -10.9496    0.0000 C   0  0  0  0  0  0  0  0  0  0  0  0
   13.4374  -10.1267    0.0000 C   0  0  0  0  0  0  0  0  0  0  0  0
   13.7815   -6.5862    0.0000 O   0  0  0  0  0  0  0  0  0  0  0  0
   12.4200   -6.1523    0.0000 N   0  0  0  0  0  0  0  0  0  0  0  0
   12.6725   -5.3637    0.0000 C   0  0  0  0  0  0  0  0  0  0  0  0
   12.1209   -4.7616    0.0000 C   0  0  0  0  0  0  0  0  0  0  0  0
   11.3137   -4.9313    0.0000 N   0  0  0  0  0  0  0  0  0  0  0  0
   11.0610   -5.7134    0.0000 C   0  0  0  0  0  0  0  0  0  0  0  0
   11.6155   -6.3278    0.0000 C   0  0  0  0  0  0  0  0  0  0  0  0
   14.4678   -8.9177    0.0000 C   0  0  0  0  0  0  0  0  0  0  0  0
   14.0725   -9.6398    0.0000 C   0  0  0  0  0  0  0  0  0  0  0  0
   14.5023  -10.3431    0.0000 C   0  0  0  0  0  0  0  0  0  0  0  0
   15.3280  -10.3225    0.0000 C   0  0  0  0  0  0  0  0  0  0  0  0
   15.7219   -9.5928    0.0000 C   0  0  0  0  0  0  0  0  0  0  0  0
   15.2898   -8.8925    0.0000 C   0  0  0  0  0  0  0  0  0  0  0  0
   13.3728   -9.0656    0.0000 C   0  0  0  0  0  0  0  0  0  0  0  0
   15.6807   -8.1660    0.0000 C   0  0  0  0  0  0  0  0  0  0  0  0
   10.2543   -5.8861    0.0000 C   0  0  0  0  0  0  0  0  0  0  0  0
    9.7013   -5.2739    0.0000 C   0  0  0  0  0  0  0  0  0  0  0  0
    8.8946   -5.4466    0.0000 C   0  0  0  0  0  0  0  0  0  0  0  0
    8.3417   -4.8343    0.0000 C   0  0  0  0  0  0  0  0  0  0  0  0
  5 12  1  0
  5  6  1  0
 10 18  2  0
  7  8  1  0
 10 19  1  0
 19 20  1  0
  9  5  1  0
  4  1  2  0
  7 10  1  0
  8  9  2  0
  6 11  1  0
 19 24  1  0
 20 21  1  0
 21 22  1  0
 22 23  1  0
 23 24  1  0
 11 25  1  0
  2  3  2  0
 25 26  2  0
 12 13  2  0
 26 27  1  0
  6  7  2  0
 27 28  2  0
 13 14  1  0
 28 29  1  0
  3  9  1  0
 29 30  2  0
 30 25  1  0
 14 15  2  0
 26 31  1  0
  1  2  1  0
 30 32  1  0
 15 16  1  0
 23 33  1  0
  8  4  1  0
 33 34  1  0
 16 17  2  0
 34 35  1  0
 17 12  1  0
 35 36  1  0
M  END
>  <chembl_id>  (41) 
CHEMBL1824954

$$$$
CHEMBL1863366
     RDKit          2D

 26 28  0  0  0  0  0  0  0  0999 V2000
   10.0499   -5.8494    0.0000 C   0  0  0  0  0  0  0  0  0  0  0  0
    9.3349   -6.2510    0.0000 N   0  0  0  0  0  0  0  0  0  0  0  0
    7.9054   -6.2249    0.0000 N   0  0  0  0  0  0  0  0  0  0  0  0
    7.8904   -7.0503    0.0000 C   0  0  0  0  0  0  0  0  0  0  0  0
    7.8688   -8.7007    0.0000 N   0  0  0  0  0  0  0  0  0  0  0  0
    8.6277   -5.8253    0.0000 C   0  0  0  0  0  0  0  0  0  0  0  0
    7.8584   -9.5260    0.0000 C   0  0  0  0  0  0  0  0  0  0  0  0
    8.5764   -9.9310    0.0000 C   0  0  0  0  0  0  0  0  0  0  0  0
    9.2885  -11.1679    0.0000 N   0  0  0  0  0  0  0  0  0  0  0  0
    9.9977   -9.9222    0.0000 C   0  0  0  0  0  0  0  0  0  0  0  0
    8.5947   -7.4808    0.0000 C   0  0  0  0  0  0  0  0  0  0  0  0
    7.1670   -7.4571    0.0000 C   0  0  0  0  0  0  0  0  0  0  0  0
    8.5914   -8.3021    0.0000 C   0  0  0  0  0  0  0  0  0  0  0  0
    7.1525   -8.2853    0.0000 C   0  0  0  0  0  0  0  0  0  0  0  0
    7.1392   -9.9370    0.0000 C   0  0  0  0  0  0  0  0  0  0  0  0
   10.0041  -10.7522    0.0000 C   0  0  0  0  0  0  0  0  0  0  0  0
    7.1424  -10.7685    0.0000 C   0  0  0  0  0  0  0  0  0  0  0  0
    6.4266   -9.5327    0.0000 C   0  0  0  0  0  0  0  0  0  0  0  0
    5.0000  -11.1811    0.0000 Cl  0  0  0  0  0  0  0  0  0  0  0  0
    9.2800   -9.5167    0.0000 C   0  0  0  0  0  0  0  0  0  0  0  0
    8.5761  -10.7584    0.0000 C   0  0  0  0  0  0  0  0  0  0  0  0
    5.7120  -10.7690    0.0000 C   0  0  0  0  0  0  0  0  0  0  0  0
    6.4286  -11.1821    0.0000 C   0  0  0  0  0  0  0  0  0  0  0  0
    5.7133   -9.9410    0.0000 C   0  0  0  0  0  0  0  0  0  0  0  0
    8.6427   -5.0000    0.0000 O   0  0  0  0  0  0  0  0  0  0  0  0
   10.7528   -6.2692    0.0000 C   0  0  0  0  0  0  0  0  0  0  0  0
  5 13  1  0
  5  7  1  0
  3  6  1  0
 15  7  1  0
 22 19  1  0
 10 20  1  0
  5 14  1  0
  6  2  1  0
 13 11  1  0
 11  4  1  0
  4 12  1  0
 12 14  1  0
 20  8  2  0
  4  3  1  0
 23 17  2  0
  7  8  1  0
 17 15  1  0
 22 23  1  0
  8 21  1  0
 15 18  2  0
 21  9  2  0
  6 25  2  0
  1  2  1  0
  1 26  1  0
 18 24  1  0
  9 16  1  0
 24 22  2  0
 16 10  2  0
M  END
>  <chembl_id>  (42) 
CHEMBL1863366

$$$$
CHEMBL1877917
     RDKit          2D

 23 25  0  0  0  0  0  0  0  0999 V2000
   -0.6691    1.8909    0.0000 O   0  0  0  0  0  0  0  0  0  0  0  0
   -3.5270    2.7159    0.0000 O   0  0  0  0  0  0  0  0  0  0  0  0
    0.0454    3.1284    0.0000 N   0  0  0  0  0  0  0  0  0  0  0  0
    0.7599    1.8909    0.0000 C   0  0  0  0  0  0  0  0  0  0  0  0
    0.7599    2.7159    0.0000 C   0  0  0  0  0  0  0  0  0  0  0  0
    1.4743    1.4784    0.0000 C   0  0  0  0  0  0  0  0  0  0  0  0
    0.0454    1.4784    0.0000 C   0  0  0  0  0  0  0  0  0  0  0  0
    1.4743    3.1284    0.0000 C   0  0  0  0  0  0  0  0  0  0  0  0
    2.1888    1.8909    0.0000 C   0  0  0  0  0  0  0  0  0  0  0  0
    1.4743    0.6534    0.0000 C   0  0  0  0  0  0  0  0  0  0  0  0
    2.1888    2.7159    0.0000 C   0  0  0  0  0  0  0  0  0  0  0  0
   -0.6691    2.7159    0.0000 C   0  0  0  0  0  0  0  0  0  0  0  0
    0.0454    0.6534    0.0000 C   0  0  0  0  0  0  0  0  0  0  0  0
    0.7599    0.2409    0.0000 C   0  0  0  0  0  0  0  0  0  0  0  0
   -1.3835    3.1284    0.0000 C   0  0  0  0  0  0  0  0  0  0  0  0
   -4.2414    3.1284    0.0000 C   0  0  0  0  0  0  0  0  0  0  0  0
   -2.0980    2.7159    0.0000 C   0  0  0  0  0  0  0  0  0  0  0  0
   -4.9559    2.7159    0.0000 C   0  0  0  0  0  0  0  0  0  0  0  0
   -4.2414    3.9534    0.0000 C   0  0  0  0  0  0  0  0  0  0  0  0
   -2.8125    3.1284    0.0000 C   0  0  0  0  0  0  0  0  0  0  0  0
   -5.6704    3.1284    0.0000 C   0  0  0  0  0  0  0  0  0  0  0  0
   -4.9559    4.3659    0.0000 C   0  0  0  0  0  0  0  0  0  0  0  0
   -5.6704    3.9534    0.0000 C   0  0  0  0  0  0  0  0  0  0  0  0
  1 12  2  0
  2 16  1  0
  2 20  1  0
  3  5  1  0
  3 12  1  0
  4  5  1  0
  4  6  1  0
  4  7  2  0
  5  8  1  0
  6  9  1  0
  6 10  2  0
  7 13  1  0
  8 11  1  0
  9 11  1  0
 10 14  1  0
 12 15  1  0
 13 14  2  0
 15 17  1  0
 16 18  2  0
 16 19  1  0
 17 20  1  0
 18 21  1  0
 19 22  2  0
 21 23  2  0
 22 23  1  0
M  END
>  <chembl_id>  (43) 
CHEMBL1877917

$$$$
CHEMBL1881365
     RDKit          2D

 32 36  0  0  0  0  0  0  0  0999 V2000
    4.4148   -0.1615    0.0000 O   0  0  0  0  0  0  0  0  0  0  0  0
    0.9438    2.0406    0.0000 O   0  0  0  0  0  0  0  0  0  0  0  0
    0.9438    3.3754    0.0000 O   0  0  0  0  0  0  0  0  0  0  0  0
    3.5943   -1.6767    0.0000 O   0  0  0  0  0  0  0  0  0  0  0  0
   -2.5932   -2.3911    0.0000 O   0  0  0  0  0  0  0  0  0  0  0  0
    5.3008    1.0580    0.0000 N   0  0  0  0  0  0  0  0  0  0  0  0
    2.3568   -0.9622    0.0000 N   0  0  0  0  0  0  0  0  0  0  0  0
    3.8719    1.0580    0.0000 C   0  0  0  0  0  0  0  0  0  0  0  0
    3.8719    1.8830    0.0000 C   0  0  0  0  0  0  0  0  0  0  0  0
    4.5863    0.6455    0.0000 C   0  0  0  0  0  0  0  0  0  0  0  0
    3.1574    2.2955    0.0000 C   0  0  0  0  0  0  0  0  0  0  0  0
    3.5943   -0.2477    0.0000 C   0  0  0  0  0  0  0  0  0  0  0  0
    3.2588    0.5060    0.0000 C   0  0  0  0  0  0  0  0  0  0  0  0
    1.7284    2.2955    0.0000 C   0  0  0  0  0  0  0  0  0  0  0  0
    2.4429    1.8830    0.0000 C   0  0  0  0  0  0  0  0  0  0  0  0
    4.5863    2.2955    0.0000 C   0  0  0  0  0  0  0  0  0  0  0  0
    1.7284    3.1205    0.0000 C   0  0  0  0  0  0  0  0  0  0  0  0
    3.1574    3.1205    0.0000 C   0  0  0  0  0  0  0  0  0  0  0  0
    3.1818   -0.9622    0.0000 C   0  0  0  0  0  0  0  0  0  0  0  0
    5.3008    1.8830    0.0000 C   0  0  0  0  0  0  0  0  0  0  0  0
    2.4429    3.5330    0.0000 C   0  0  0  0  0  0  0  0  0  0  0  0
    0.4589    2.7080    0.0000 C   0  0  0  0  0  0  0  0  0  0  0  0
    1.9443   -1.6767    0.0000 C   0  0  0  0  0  0  0  0  0  0  0  0
    1.1193   -1.6767    0.0000 C   0  0  0  0  0  0  0  0  0  0  0  0
   -0.1182   -2.3911    0.0000 C   0  0  0  0  0  0  0  0  0  0  0  0
    0.7068   -2.3911    0.0000 C   0  0  0  0  0  0  0  0  0  0  0  0
   -1.7682   -2.3911    0.0000 C   0  0  0  0  0  0  0  0  0  0  0  0
   -0.5307   -3.1056    0.0000 C   0  0  0  0  0  0  0  0  0  0  0  0
   -0.5307   -1.6767    0.0000 C   0  0  0  0  0  0  0  0  0  0  0  0
   -1.3557   -3.1056    0.0000 C   0  0  0  0  0  0  0  0  0  0  0  0
   -1.3557   -1.6767    0.0000 C   0  0  0  0  0  0  0  0  0  0  0  0
   -3.0057   -3.1056    0.0000 C   0  0  0  0  0  0  0  0  0  0  0  0
  1 10  1  0
  1 12  1  0
  2 14  1  0
  2 22  1  0
  3 17  1  0
  3 22  1  0
  4 19  2  0
  5 27  1  0
  5 32  1  0
  6 10  2  0
  6 20  1  0
  7 19  1  0
  7 23  1  0
  8  9  2  0
  8 10  1  0
  8 13  1  0
  9 11  1  0
  9 16  1  0
 11 15  1  0
 11 18  2  0
 12 13  1  0
 12 19  1  0
 14 15  2  0
 14 17  1  0
 16 20  2  0
 17 21  2  0
 18 21  1  0
 23 24  1  0
 24 26  1  0
 25 26  1  0
 25 28  2  0
 25 29  1  0
 27 30  2  0
 27 31  1  0
 28 30  1  0
 29 31  2  0
M  END
>  <chembl_id>  (44) 
CHEMBL1881365

$$$$
CHEMBL1895584
     RDKit          2D

 14 15  0  0  0  0  0  0  0  0999 V2000
    0.6589    2.0330    0.0000 O   0  0  0  0  0  0  0  0  0  0  0  0
    2.0879    2.0330    0.0000 N   0  0  0  0  0  0  0  0  0  0  0  0
    2.8024    0.7955    0.0000 C   0  0  0  0  0  0  0  0  0  0  0  0
    2.0879    0.3830    0.0000 C   0  0  0  0  0  0  0  0  0  0  0  0
    2.8024    1.6205    0.0000 C   0  0  0  0  0  0  0  0  0  0  0  0
    1.3734    0.7955    0.0000 C   0  0  0  0  0  0  0  0  0  0  0  0
    1.3734    1.6205    0.0000 C   0  0  0  0  0  0  0  0  0  0  0  0
    3.5168    0.3830    0.0000 C   0  0  0  0  0  0  0  0  0  0  0  0
    3.5168    2.0330    0.0000 C   0  0  0  0  0  0  0  0  0  0  0  0
    0.6589    0.3830    0.0000 C   0  0  0  0  0  0  0  0  0  0  0  0
    4.2313    0.7955    0.0000 C   0  0  0  0  0  0  0  0  0  0  0  0
    2.0879   -0.4420    0.0000 C   0  0  0  0  0  0  0  0  0  0  0  0
    4.2313    1.6205    0.0000 C   0  0  0  0  0  0  0  0  0  0  0  0
    0.6589   -0.4420    0.0000 C   0  0  0  0  0  0  0  0  0  0  0  0
  1  7  1  0
  2  5  2  0
  2  7  1  0
  3  4  2  0
  3  5  1  0
  3  8  1  0
  4  6  1  0
  4 12  1  0
  5  9  1  0
  6  7  2  0
  6 10  1  0
  8 11  2  0
  9 13  2  0
 10 14  1  0
 11 13  1  0
M  END
>  <chembl_id>  (45) 
CHEMBL1895584

$$$$
CHEMBL1991874
     RDKit          2D

 26 29  0  0  0  0  0  0  0  0999 V2000
    0.1536    1.3672    0.0000 O   0  0  0  0  0  0  0  0  0  0  0  0
    0.6411   -1.1104    0.0000 N   0  0  0  0  0  0  0  0  0  0  0  0
   -0.1435   -1.3654    0.0000 N   0  0  0  0  0  0  0  0  0  0  0  0
    1.3556    0.1271    0.0000 N   0  0  0  0  0  0  0  0  0  0  0  0
   -1.2054    0.9256    0.0000 N   0  0  0  0  0  0  0  0  0  0  0  0
    0.6411   -0.2854    0.0000 C   0  0  0  0  0  0  0  0  0  0  0  0
   -0.1435   -0.0305    0.0000 C   0  0  0  0  0  0  0  0  0  0  0  0
    1.3556   -1.5229    0.0000 C   0  0  0  0  0  0  0  0  0  0  0  0
   -0.3984    0.7541    0.0000 C   0  0  0  0  0  0  0  0  0  0  0  0
   -0.6284   -0.6979    0.0000 C   0  0  0  0  0  0  0  0  0  0  0  0
    1.3556   -2.3479    0.0000 C   0  0  0  0  0  0  0  0  0  0  0  0
    2.0701   -1.1104    0.0000 C   0  0  0  0  0  0  0  0  0  0  0  0
    2.0701   -0.2854    0.0000 C   0  0  0  0  0  0  0  0  0  0  0  0
   -1.4604    1.7103    0.0000 C   0  0  0  0  0  0  0  0  0  0  0  0
    2.0701   -2.7604    0.0000 C   0  0  0  0  0  0  0  0  0  0  0  0
    0.6411   -2.7604    0.0000 C   0  0  0  0  0  0  0  0  0  0  0  0
   -2.2673    1.8818    0.0000 C   0  0  0  0  0  0  0  0  0  0  0  0
   -2.5223    2.6664    0.0000 C   0  0  0  0  0  0  0  0  0  0  0  0
   -0.9083    2.3234    0.0000 C   0  0  0  0  0  0  0  0  0  0  0  0
   -1.9702    3.2795    0.0000 C   0  0  0  0  0  0  0  0  0  0  0  0
    2.0701   -3.5854    0.0000 C   0  0  0  0  0  0  0  0  0  0  0  0
    0.6411   -3.5854    0.0000 C   0  0  0  0  0  0  0  0  0  0  0  0
   -1.1633    3.1080    0.0000 C   0  0  0  0  0  0  0  0  0  0  0  0
    1.3556   -3.9979    0.0000 C   0  0  0  0  0  0  0  0  0  0  0  0
   -3.3292    2.8379    0.0000 C   0  0  0  0  0  0  0  0  0  0  0  0
   -2.2252    4.0641    0.0000 C   0  0  0  0  0  0  0  0  0  0  0  0
  1  9  2  0
  2  3  1  0
  2  6  1  0
  2  8  1  0
  3 10  2  0
  4  6  1  0
  4 13  2  0
  5  9  1  0
  5 14  1  0
  6  7  2  0
  7  9  1  0
  7 10  1  0
  8 11  1  0
  8 12  2  0
 11 15  2  0
 11 16  1  0
 12 13  1  0
 14 17  2  0
 14 19  1  0
 15 21  1  0
 16 22  2  0
 17 18  1  0
 18 20  2  0
 18 25  1  0
 19 23  2  0
 20 23  1  0
 20 26  1  0
 21 24  2  0
 22 24  1  0
M  END
>  <chembl_id>  (46) 
CHEMBL1991874

$$$$
CHEMBL2088397
     RDKit          2D

 27 30  0  0  0  0  0  0  0  0999 V2000
   -2.1128  -25.7027    0.0000 C   0  0  0  0  0  0  0  0  0  0  0  0
   -1.3963  -25.2894    0.0000 C   0  0  0  0  0  0  0  0  0  0  0  0
   -1.3992  -24.4588    0.0000 C   0  0  0  0  0  0  0  0  0  0  0  0
   -2.1146  -24.0497    0.0000 C   0  0  0  0  0  0  0  0  0  0  0  0
   -2.8276  -25.2898    0.0000 C   0  0  0  0  0  0  0  0  0  0  0  0
   -2.8264  -24.4655    0.0000 C   0  0  0  0  0  0  0  0  0  0  0  0
   -3.6100  -24.2096    0.0000 N   0  0  0  0  0  0  0  0  0  0  0  0
   -4.0956  -24.8758    0.0000 C   0  0  0  0  0  0  0  0  0  0  0  0
   -3.6120  -25.5433    0.0000 S   0  0  0  0  0  0  0  0  0  0  0  0
   -4.9206  -24.8746    0.0000 C   0  0  0  0  0  0  0  0  0  0  0  0
   -0.6863  -24.0436    0.0000 N   0  0  0  0  0  0  0  0  0  0  0  0
    0.0297  -24.4534    0.0000 C   0  0  0  0  0  0  0  0  0  0  0  0
    0.7427  -24.0383    0.0000 C   0  0  0  0  0  0  0  0  0  0  0  0
    0.0329  -25.2784    0.0000 O   0  0  0  0  0  0  0  0  0  0  0  0
    1.4571  -24.4515    0.0000 C   0  0  0  0  0  0  0  0  0  0  0  0
    2.1695  -24.0370    0.0000 C   0  0  0  0  0  0  0  0  0  0  0  0
    2.1668  -23.2111    0.0000 C   0  0  0  0  0  0  0  0  0  0  0  0
    1.4458  -22.8015    0.0000 C   0  0  0  0  0  0  0  0  0  0  0  0
    0.7363  -23.2183    0.0000 C   0  0  0  0  0  0  0  0  0  0  0  0
   -5.3320  -24.1595    0.0000 O   0  0  0  0  0  0  0  0  0  0  0  0
    2.8792  -22.7950    0.0000 C   0  0  0  0  0  0  0  0  0  0  0  0
    3.5958  -23.2038    0.0000 N   0  0  0  0  0  0  0  0  0  0  0  0
    3.5935  -24.0256    0.0000 C   0  0  0  0  0  0  0  0  0  0  0  0
    4.3060  -24.4344    0.0000 C   0  0  0  0  0  0  0  0  0  0  0  0
    5.0208  -24.0218    0.0000 O   0  0  0  0  0  0  0  0  0  0  0  0
    5.0185  -23.1958    0.0000 C   0  0  0  0  0  0  0  0  0  0  0  0
    4.3015  -22.7825    0.0000 C   0  0  0  0  0  0  0  0  0  0  0  0
 12 13  1  0
  2  3  1  0
 12 14  2  0
 13 15  2  0
  3  4  2  0
 15 16  1  0
  6  7  1  0
 16 17  2  0
  7  8  2  0
 17 18  1  0
  8  9  1  0
 18 19  2  0
 19 13  1  0
  9  5  1  0
 10 20  1  0
  4  6  1  0
 17 21  1  0
  8 10  1  0
 21 22  1  0
 22 23  1  0
  5  6  2  0
  3 11  1  0
  1  2  2  0
 11 12  1  0
  5  1  1  0
 22 27  1  0
 23 24  1  0
 24 25  1  0
 25 26  1  0
 26 27  1  0
M  END
>  <chembl_id>  (47) 
CHEMBL2088397

$$$$
CHEMBL2106573
     RDKit          2D

 19 20  0  0  0  0  0  0  0  0999 V2000
   -0.6583    0.0583    0.0000 C   0  0  0  0  0  0  0  0  0  0  0  0
    0.3667   -0.8542    0.0000 C   0  0  0  0  0  0  0  0  0  0  0  0
   -0.3625    1.4000    0.0000 C   0  0  0  0  0  0  0  0  0  0  0  0
   -1.9708   -0.3667    0.0000 C   0  0  0  0  0  0  0  0  0  0  0  0
   -3.0833    0.4375    0.0000 S   0  0  0  0  0  0  0  0  0  0  0  0
   -1.2833    2.4083    0.0000 S   0  0  0  0  0  0  0  0  0  0  0  0
    1.6667   -0.4292    0.0000 C   0  0  0  0  0  0  0  0  0  0  0  0
   -2.3958   -1.6792    0.0000 C   0  0  0  0  0  0  0  0  0  0  0  0
    0.8917    1.9708    0.0000 C   0  0  0  0  0  0  0  0  0  0  0  0
    2.6917   -1.3375    0.0000 N   0  0  0  0  0  0  0  0  0  0  0  0
   -0.6083    3.5958    0.0000 C   0  0  0  0  0  0  0  0  0  0  0  0
   -4.2083   -0.3667    0.0000 C   0  0  0  0  0  0  0  0  0  0  0  0
   -3.7833   -1.6792    0.0000 C   0  0  0  0  0  0  0  0  0  0  0  0
    0.7292    3.3333    0.0000 C   0  0  0  0  0  0  0  0  0  0  0  0
    2.4167   -2.6917    0.0000 C   0  0  0  0  0  0  0  0  0  0  0  0
    3.9667   -0.8792    0.0000 C   0  0  0  0  0  0  0  0  0  0  0  0
    1.9375    0.9000    0.0000 C   0  0  0  0  0  0  0  0  0  0  0  0
    3.4417   -3.5875    0.0000 C   0  0  0  0  0  0  0  0  0  0  0  0
    4.2042    0.4583    0.0000 C   0  0  0  0  0  0  0  0  0  0  0  0
  2  1  2  0
  3  1  1  0
  4  1  1  0
  5  4  1  0
  6  3  1  0
  7  2  1  0
  8  4  2  0
  9  3  2  0
 10  7  1  0
 11  6  1  0
 12  5  1  0
 13  8  1  0
 14  9  1  0
 15 10  1  0
 16 10  1  0
 17  7  1  0
 18 15  1  0
 19 16  1  0
 13 12  2  0
 14 11  2  0
M  END
>  <chembl_id>  (48) 
CHEMBL2106573

$$$$
CHEMBL2252470
     RDKit          2D

 18 18  0  0  0  0  0  0  0  0999 V2000
    7.6754   -9.7650    0.0000 C   0  0  0  0  0  0  0  0  0  0  0  0
    6.9609  -10.1775    0.0000 C   0  0  0  0  0  0  0  0  0  0  0  0
    6.2465   -9.7650    0.0000 C   0  0  0  0  0  0  0  0  0  0  0  0
    6.2465   -8.9400    0.0000 C   0  0  0  0  0  0  0  0  0  0  0  0
    6.9609   -8.5275    0.0000 C   0  0  0  0  0  0  0  0  0  0  0  0
    7.6754   -8.9400    0.0000 C   0  0  0  0  0  0  0  0  0  0  0  0
    5.5320  -10.1775    0.0000 O   0  0  0  0  0  0  0  0  0  0  0  0
    4.8175   -9.7650    0.0000 C   0  0  0  0  0  0  0  0  0  0  0  0
    4.8175   -8.9400    0.0000 C   0  0  0  0  0  0  0  0  0  0  0  0
    4.1031   -8.5275    0.0000 C   0  0  0  0  0  0  0  0  0  0  0  0
    4.1031   -7.7025    0.0000 C   0  0  0  0  0  0  0  0  0  0  0  0
    3.3886   -7.2900    0.0000 C   0  0  0  0  0  0  0  0  0  0  0  0
    8.3899  -10.1775    0.0000 O   0  0  0  0  0  0  0  0  0  0  0  0
    9.1044   -9.7650    0.0000 C   0  0  0  0  0  0  0  0  0  0  0  0
    9.1044   -8.9400    0.0000 C   0  0  0  0  0  0  0  0  0  0  0  0
    9.8188   -8.5275    0.0000 C   0  0  0  0  0  0  0  0  0  0  0  0
    9.8188   -7.7025    0.0000 C   0  0  0  0  0  0  0  0  0  0  0  0
   10.5333   -8.9400    0.0000 C   0  0  0  0  0  0  0  0  0  0  0  0
  1  2  2  0
  2  3  1  0
  3  4  2  0
  4  5  1  0
  5  6  2  0
  1  6  1  0
  8  9  1  0
  9 10  1  0
 10 11  1  0
 11 12  1  0
  7  8  1  0
  3  7  1  0
 14 15  1  0
 15 16  1  0
 16 17  1  0
 16 18  1  0
 13 14  1  0
  1 13  1  0
M  END
>  <chembl_id>  (49) 
CHEMBL2252470

$$$$
CHEMBL2296225
     RDKit          2D

 18 19  0  0  0  0  0  0  0  0999 V2000
   16.6148   -1.8325    0.0000 C   0  0  0  0  0  0  0  0  0  0  0  0
   16.6137   -2.6520    0.0000 C   0  0  0  0  0  0  0  0  0  0  0  0
   17.3217   -3.0610    0.0000 C   0  0  0  0  0  0  0  0  0  0  0  0
   17.3199   -1.4236    0.0000 C   0  0  0  0  0  0  0  0  0  0  0  0
   18.0285   -1.8289    0.0000 C   0  0  0  0  0  0  0  0  0  0  0  0
   18.0319   -2.6540    0.0000 C   0  0  0  0  0  0  0  0  0  0  0  0
   18.7443   -3.0614    0.0000 C   0  0  0  0  0  0  0  0  0  0  0  0
   19.4579   -2.6482    0.0000 C   0  0  0  0  0  0  0  0  0  0  0  0
   19.4545   -1.8230    0.0000 C   0  0  0  0  0  0  0  0  0  0  0  0
   18.7375   -1.4111    0.0000 C   0  0  0  0  0  0  0  0  0  0  0  0
   18.7330   -0.5939    0.0000 O   0  0  0  0  0  0  0  0  0  0  0  0
   20.1609   -1.4122    0.0000 O   0  0  0  0  0  0  0  0  0  0  0  0
   18.7465   -3.8786    0.0000 N   0  0  0  0  0  0  0  0  0  0  0  0
   19.4553   -4.2853    0.0000 C   0  0  0  0  0  0  0  0  0  0  0  0
   19.4576   -5.1025    0.0000 C   0  0  0  0  0  0  0  0  0  0  0  0
   20.1619   -3.8748    0.0000 O   0  0  0  0  0  0  0  0  0  0  0  0
   20.1664   -5.5092    0.0000 C   0  0  0  0  0  0  0  0  0  0  0  0
   18.7510   -5.5130    0.0000 C   0  0  0  0  0  0  0  0  0  0  0  0
  1  2  2  0
  2  3  1  0
  3  6  2  0
  5  4  2  0
  4  1  1  0
  5  6  1  0
  5 10  1  0
  6  7  1  0
  7  8  2  0
  8  9  1  0
  9 10  1  0
 10 11  2  0
  9 12  2  0
  7 13  1  0
 13 14  1  0
 14 15  1  0
 14 16  2  0
 15 17  1  0
 15 18  1  0
M  END
>  <chembl_id>  (50) 
CHEMBL2296225

$$$$
CHEMBL2360298
     RDKit          2D

 19 20  0  0  0  0  0  0  0  0999 V2000
   -2.3383   -1.3500    0.0000 O   0  0  0  0  0  0  0  0  0  0  0  0
    0.0000    2.7000    0.0000 O   0  0  0  0  0  0  0  0  0  0  0  0
   -1.2990    0.7500    0.0000 N   0  0  0  0  0  0  0  0  0  0  0  0
    0.0000   -1.5000    0.0000 N   0  0  0  0  0  0  0  0  0  0  0  0
    2.5973   -1.5031    0.0000 N   0  0  0  0  0  0  0  0  0  0  0  0
   -1.2990   -0.7500    0.0000 C   0  0  0  0  0  0  0  0  0  0  0  0
    0.0000    1.5000    0.0000 C   0  0  0  0  0  0  0  0  0  0  0  0
    1.2990   -0.7500    0.0000 C   0  0  0  0  0  0  0  0  0  0  0  0
    1.2990    0.7500    0.0000 C   0  0  0  0  0  0  0  0  0  0  0  0
   -2.6003    1.4977    0.0000 C   0  0  0  0  0  0  0  0  0  0  0  0
   -3.8990    0.7455    0.0000 C   0  0  0  0  0  0  0  0  0  0  0  0
   -5.2007    1.4909    0.0000 C   0  0  0  0  0  0  0  0  0  0  0  0
   -3.8939   -0.7546    0.0000 C   0  0  0  0  0  0  0  0  0  0  0  0
    2.5951   -3.0039    0.0000 C   0  0  0  0  0  0  0  0  0  0  0  0
   -6.4972    0.7364    0.0000 C   0  0  0  0  0  0  0  0  0  0  0  0
   -5.1903   -1.5091    0.0000 C   0  0  0  0  0  0  0  0  0  0  0  0
   -6.4920   -0.7636    0.0000 C   0  0  0  0  0  0  0  0  0  0  0  0
    3.8933   -3.7570    0.0000 C   0  0  0  0  0  0  0  0  0  0  0  0
    3.8916   -4.9570    0.0000 C   0  0  0  0  0  0  0  0  0  0  0  0
  1  6  2  0
  2  7  2  0
  3  6  1  0
  3  7  1  0
  3 10  1  0
  4  6  1  0
  4  8  1  0
  5  8  1  0
  5 14  1  0
  7  9  1  0
  8  9  2  0
 10 11  1  0
 11 12  2  0
 11 13  1  0
 12 15  1  0
 13 16  2  0
 14 18  1  0
 15 17  2  0
 16 17  1  0
 18 19  2  0
M  END
>  <chembl_id>  (51) 
CHEMBL2360298

$$$$
CHEMBL2361494
     RDKit          2D

 25 26  0  0  0  0  0  0  0  0999 V2000
    2.8542   -3.3061    0.0000 O   0  0  0  0  0  0  0  0  0  0  0  0
    2.2809   -4.4605    0.0000 O   0  0  0  0  0  0  0  0  0  0  0  0
    4.3948   -6.8187    0.0000 O   0  0  0  0  0  0  0  0  0  0  0  0
    2.7135   -1.7374    0.0000 O   0  0  0  0  0  0  0  0  0  0  0  0
    4.3104   -4.2042    0.0000 N   0  0  0  0  0  0  0  0  0  0  0  0
    1.4273   -1.6522    0.0000 N   0  0  0  0  0  0  0  0  0  0  0  0
    4.4499   -5.5317    0.0000 C   0  0  0  0  0  0  0  0  0  0  0  0
    3.5671   -4.5457    0.0000 C   0  0  0  0  0  0  0  0  0  0  0  0
    3.6429   -5.3602    0.0000 C   0  0  0  0  0  0  0  0  0  0  0  0
    4.8624   -4.8173    0.0000 C   0  0  0  0  0  0  0  0  0  0  0  0
    2.8531   -4.1315    0.0000 C   0  0  0  0  0  0  0  0  0  0  0  0
    4.7835   -6.2853    0.0000 C   0  0  0  0  0  0  0  0  0  0  0  0
    3.1498   -5.7989    0.0000 C   0  0  0  0  0  0  0  0  0  0  0  0
    5.5188   -4.7483    0.0000 C   0  0  0  0  0  0  0  0  0  0  0  0
    2.1402   -2.8919    0.0000 C   0  0  0  0  0  0  0  0  0  0  0  0
    2.1414   -2.0664    0.0000 C   0  0  0  0  0  0  0  0  0  0  0  0
    5.4398   -6.3554    0.0000 C   0  0  0  0  0  0  0  0  0  0  0  0
    1.4285   -0.8267    0.0000 C   0  0  0  0  0  0  0  0  0  0  0  0
    0.7145   -0.4125    0.0000 C   0  0  0  0  0  0  0  0  0  0  0  0
    0.7145    0.4125    0.0000 C   0  0  0  0  0  0  0  0  0  0  0  0
    0.0000   -0.8250    0.0000 C   0  0  0  0  0  0  0  0  0  0  0  0
    2.0007   -0.4977    0.0000 C   0  0  0  0  0  0  0  0  0  0  0  0
    0.0000    0.8250    0.0000 C   0  0  0  0  0  0  0  0  0  0  0  0
   -0.7145   -0.4125    0.0000 C   0  0  0  0  0  0  0  0  0  0  0  0
   -0.7145    0.4125    0.0000 C   0  0  0  0  0  0  0  0  0  0  0  0
  1 11  1  0
  1 15  1  0
  2 11  2  0
  3 12  2  0
  4 16  2  0
  5  8  1  0
  5 10  1  0
  6 16  1  0
  6 18  1  0
  7  9  1  0
  7 10  2  0
  7 12  1  0
  8  9  2  0
  8 11  1  0
  9 13  1  0
 10 14  1  0
 12 17  1  0
 15 16  1  0
 18 19  1  0
 18 22  1  0
 19 20  2  0
 19 21  1  0
 20 23  1  0
 21 24  2  0
 23 25  2  0
 24 25  1  0
M  END
>  <chembl_id>  (52) 
CHEMBL2361494

$$$$
CHEMBL2381123
     RDKit          2D

 24 27  0  0  0  0  0  0  0  0999 V2000
   18.8131   -5.6954    0.0000 C   0  0  0  0  0  0  0  0  0  0  0  0
   18.8191   -7.1200    0.0000 C   0  0  0  0  0  0  0  0  0  0  0  0
   11.4888   -7.6046    0.0000 O   0  0  0  0  0  0  0  0  0  0  0  0
   14.2792   -7.5412    0.0000 C   0  0  0  0  0  0  0  0  0  0  0  0
   15.5382   -7.1257    0.0000 C   0  0  0  0  0  0  0  0  0  0  0  0
   16.7683   -6.4126    0.0000 C   0  0  0  0  0  0  0  0  0  0  0  0
   12.8990   -9.2513    0.0000 C   0  0  0  0  0  0  0  0  0  0  0  0
   19.2291   -6.4079    0.0000 C   0  0  0  0  0  0  0  0  0  0  0  0
   10.7804   -8.0192    0.0000 C   0  0  0  0  0  0  0  0  0  0  0  0
   13.6157   -8.0252    0.0000 C   0  0  0  0  0  0  0  0  0  0  0  0
   12.1973   -8.0192    0.0000 C   0  0  0  0  0  0  0  0  0  0  0  0
   12.1938   -8.8401    0.0000 C   0  0  0  0  0  0  0  0  0  0  0  0
   17.9991   -7.1212    0.0000 C   0  0  0  0  0  0  0  0  0  0  0  0
   13.6122   -8.8461    0.0000 C   0  0  0  0  0  0  0  0  0  0  0  0
   17.5890   -7.8323    0.0000 Cl  0  0  0  0  0  0  0  0  0  0  0  0
   12.9060   -7.6096    0.0000 C   0  0  0  0  0  0  0  0  0  0  0  0
   14.2743   -6.7175    0.0000 N   0  0  0  0  0  0  0  0  0  0  0  0
   10.7804   -8.8402    0.0000 C   0  0  0  0  0  0  0  0  0  0  0  0
   16.3591   -7.1242    0.0000 C   0  0  0  0  0  0  0  0  0  0  0  0
   15.0545   -6.4624    0.0000 N   0  0  0  0  0  0  0  0  0  0  0  0
   11.4888   -9.2465    0.0000 O   0  0  0  0  0  0  0  0  0  0  0  0
   15.0569   -7.7906    0.0000 O   0  0  0  0  0  0  0  0  0  0  0  0
   17.9943   -5.6999    0.0000 C   0  0  0  0  0  0  0  0  0  0  0  0
   17.5892   -6.4112    0.0000 C   0  0  0  0  0  0  0  0  0  0  0  0
 14 10  1  0
  7 14  2  0
 22  5  1  0
 10 16  2  0
 24 13  2  0
 11 12  2  0
  5 19  1  0
  6 24  1  0
 13  2  1  0
 21 12  1  0
  9  3  1  0
 12  7  1  0
  9 18  1  0
 17  4  2  0
  1 23  2  0
 23 24  1  0
 13 15  1  0
 11 16  1  0
 11  3  1  0
 19  6  2  0
 20 17  1  0
 10  4  1  0
  4 22  1  0
  8  1  1  0
  5 20  2  0
 18 21  1  0
  2  8  2  0
M  END
>  <chembl_id>  (53) 
CHEMBL2381123

$$$$
CHEMBL2382066
     RDKit          2D

 33 35  0  0  0  0  0  0  0  0999 V2000
   25.4091  -15.7150    0.0000 C   0  0  0  0  0  0  0  0  0  0  0  0
   26.1162  -15.3053    0.0000 N   0  0  0  0  0  0  0  0  0  0  0  0
   25.4104  -16.5322    0.0000 O   0  0  0  0  0  0  0  0  0  0  0  0
   26.8245  -15.7128    0.0000 C   0  0  0  0  0  0  0  0  0  0  0  0
   27.5316  -15.3031    0.0000 C   0  0  0  0  0  0  0  0  0  0  0  0
   27.5303  -14.4859    0.0000 O   0  0  0  0  0  0  0  0  0  0  0  0
   28.2399  -15.7105    0.0000 N   0  0  0  0  0  0  0  0  0  0  0  0
   28.9470  -15.3008    0.0000 C   0  0  0  0  0  0  0  0  0  0  0  0
   29.6553  -15.7083    0.0000 C   0  0  0  0  0  0  0  0  0  0  0  0
   30.3624  -15.2986    0.0000 N   0  0  0  0  0  0  0  0  0  0  0  0
   29.6566  -16.5255    0.0000 O   0  0  0  0  0  0  0  0  0  0  0  0
   26.8258  -16.5300    0.0000 C   0  0  0  0  0  0  0  0  0  0  0  0
   28.9457  -14.4837    0.0000 C   0  0  0  0  0  0  0  0  0  0  0  0
   27.5341  -16.9374    0.0000 C   0  0  0  0  0  0  0  0  0  0  0  0
   27.5313  -17.7523    0.0000 C   0  0  0  0  0  0  0  0  0  0  0  0
   28.2388  -18.1597    0.0000 C   0  0  0  0  0  0  0  0  0  0  0  0
   28.9468  -17.7499    0.0000 C   0  0  0  0  0  0  0  0  0  0  0  0
   28.9429  -16.9285    0.0000 C   0  0  0  0  0  0  0  0  0  0  0  0
   28.2348  -16.5248    0.0000 C   0  0  0  0  0  0  0  0  0  0  0  0
   29.6528  -14.0739    0.0000 C   0  0  0  0  0  0  0  0  0  0  0  0
   30.3611  -14.4814    0.0000 C   0  0  0  0  0  0  0  0  0  0  0  0
   31.0682  -14.0717    0.0000 C   0  0  0  0  0  0  0  0  0  0  0  0
   31.7765  -14.4792    0.0000 N   0  0  0  0  0  0  0  0  0  0  0  0
   24.7014  -15.3113    0.0000 C   0  0  0  0  0  0  0  0  0  0  0  0
   24.7015  -14.4930    0.0000 C   0  0  0  0  0  0  0  0  0  0  0  0
   23.9940  -14.0856    0.0000 C   0  0  0  0  0  0  0  0  0  0  0  0
   23.9979  -15.7205    0.0000 C   0  0  0  0  0  0  0  0  0  0  0  0
   23.2899  -15.3167    0.0000 C   0  0  0  0  0  0  0  0  0  0  0  0
   23.2886  -14.4977    0.0000 C   0  0  0  0  0  0  0  0  0  0  0  0
   22.5798  -14.0910    0.0000 C   0  0  0  0  0  0  0  0  0  0  0  0
   21.8717  -14.5022    0.0000 C   0  0  0  0  0  0  0  0  0  0  0  0
   21.8769  -15.3244    0.0000 C   0  0  0  0  0  0  0  0  0  0  0  0
   22.5863  -15.7274    0.0000 C   0  0  0  0  0  0  0  0  0  0  0  0
  1  2  1  0
  1  3  2  0
  2  4  1  0
  4  5  1  0
  5  6  2  0
  5  7  1  0
  7  8  1  0
  8  9  1  0
  9 10  1  0
  9 11  2  0
  4 12  1  6
  8 13  1  1
 12 14  1  0
 14 15  2  0
 15 16  1  0
 16 17  2  0
 17 18  1  0
 18 19  2  0
 19 14  1  0
 13 20  1  0
 20 21  1  0
 21 22  1  0
 22 23  1  0
 24 25  2  0
 25 26  1  0
 26 29  2  0
 28 27  2  0
 27 24  1  0
  1 24  1  0
 28 29  1  0
 29 30  1  0
 30 31  2  0
 31 32  1  0
 32 33  2  0
 33 28  1  0
M  END
>  <chembl_id>  (54) 
CHEMBL2382066

$$$$
CHEMBL3088038
     RDKit          2D

 30 32  0  0  0  0  0  0  0  0999 V2000
   30.0442   -8.6202    0.0000 C   0  0  0  0  0  0  0  0  0  0  0  0
   30.7569   -8.2205    0.0000 P   0  0  0  0  0  0  0  0  0  0  0  0
   31.4595   -8.6379    0.0000 O   0  0  0  0  0  0  0  0  0  0  0  0
   30.7671   -7.4034    0.0000 O   0  0  0  0  0  0  0  0  0  0  0  0
   31.4556   -7.7872    0.0000 O   0  0  0  0  0  0  0  0  0  0  0  0
   32.1758   -8.1733    0.0000 C   0  0  0  0  0  0  0  0  0  0  0  0
   32.8703   -7.7426    0.0000 C   0  0  0  0  0  0  0  0  0  0  0  0
   31.4799   -7.0036    0.0000 C   0  0  0  0  0  0  0  0  0  0  0  0
   31.4901   -6.1865    0.0000 C   0  0  0  0  0  0  0  0  0  0  0  0
   30.0340   -9.4373    0.0000 C   0  0  0  0  0  0  0  0  0  0  0  0
   29.3212   -9.8371    0.0000 N   0  0  0  0  0  0  0  0  0  0  0  0
   26.6248   -9.4496    0.0000 N   0  0  0  0  0  0  0  0  0  0  0  0
   26.5303  -10.2630    0.0000 C   0  0  0  0  0  0  0  0  0  0  0  0
   25.7274  -10.4225    0.0000 N   0  0  0  0  0  0  0  0  0  0  0  0
   25.3309   -9.7083    0.0000 C   0  0  0  0  0  0  0  0  0  0  0  0
   24.5312   -9.5283    0.0000 N   0  0  0  0  0  0  0  0  0  0  0  0
   23.9796  -10.1277    0.0000 C   0  0  0  0  0  0  0  0  0  0  0  0
   24.2888   -8.7471    0.0000 C   0  0  0  0  0  0  0  0  0  0  0  0
   23.4946   -8.5654    0.0000 O   0  0  0  0  0  0  0  0  0  0  0  0
   24.8441   -8.1496    0.0000 N   0  0  0  0  0  0  0  0  0  0  0  0
   24.6017   -7.3684    0.0000 C   0  0  0  0  0  0  0  0  0  0  0  0
   25.6438   -8.3296    0.0000 C   0  0  0  0  0  0  0  0  0  0  0  0
   26.1974   -7.7265    0.0000 O   0  0  0  0  0  0  0  0  0  0  0  0
   25.8826   -9.1088    0.0000 C   0  0  0  0  0  0  0  0  0  0  0  0
   28.7984   -9.2070    0.0000 C   0  0  0  0  0  0  0  0  0  0  0  0
   28.0390   -9.5088    0.0000 C   0  0  0  0  0  0  0  0  0  0  0  0
   28.0894  -10.3245    0.0000 N   0  0  0  0  0  0  0  0  0  0  0  0
   28.8836  -10.5277    0.0000 N   0  0  0  0  0  0  0  0  0  0  0  0
   27.3490   -9.0709    0.0000 C   0  0  0  0  0  0  0  0  0  0  0  0
   29.3416   -8.2028    0.0000 O   0  0  0  0  0  0  0  0  0  0  0  0
  1  2  1  0
  2  3  2  0
  2  4  1  0
  2  5  1  0
  5  6  1  0
  6  7  1  0
  4  8  1  0
  8  9  1  0
  1 10  1  0
 10 11  1  0
 12 13  1  0
 13 14  2  0
 14 15  1  0
 15 16  1  0
 16 17  1  0
 16 18  1  0
 18 19  2  0
 18 20  1  0
 20 21  1  0
 20 22  1  0
 22 23  2  0
 22 24  1  0
 12 24  1  0
 15 24  2  0
 25 26  2  0
 26 27  1  0
 27 28  2  0
 28 11  1  0
 11 25  1  0
 26 29  1  0
 29 12  1  0
  1 30  1  0
M  END
>  <chembl_id>  (55) 
CHEMBL3088038

$$$$
CHEMBL3108992
     RDKit          2D

 24 26  0  0  0  0  0  0  0  0999 V2000
    6.3600   -4.8743    0.0000 N   0  0  0  0  0  0  0  0  0  0  0  0
    5.6930   -5.3564    0.0000 C   0  0  0  0  0  0  0  0  0  0  0  0
    5.9473   -6.1372    0.0000 C   0  0  0  0  0  0  0  0  0  0  0  0
    6.7686   -6.1372    0.0000 C   0  0  0  0  0  0  0  0  0  0  0  0
    7.0230   -5.3564    0.0000 N   0  0  0  0  0  0  0  0  0  0  0  0
    5.4672   -6.7985    0.0000 C   0  0  0  0  0  0  0  0  0  0  0  0
    4.6544   -6.7133    0.0000 N   0  0  0  0  0  0  0  0  0  0  0  0
    5.7998   -7.5449    0.0000 O   0  0  0  0  0  0  0  0  0  0  0  0
    7.2487   -6.7985    0.0000 N   0  0  0  0  0  0  0  0  0  0  0  0
    7.8003   -5.1043    0.0000 C   0  0  0  0  0  0  0  0  0  0  0  0
    4.9184   -5.1047    0.0000 C   0  0  0  0  0  0  0  0  0  0  0  0
    4.7503   -4.3038    0.0000 C   0  0  0  0  0  0  0  0  0  0  0  0
    3.5380   -5.4001    0.0000 C   0  0  0  0  0  0  0  0  0  0  0  0
    4.3140   -5.6497    0.0000 C   0  0  0  0  0  0  0  0  0  0  0  0
    3.3654   -4.5970    0.0000 C   0  0  0  0  0  0  0  0  0  0  0  0
    3.9730   -4.0544    0.0000 C   0  0  0  0  0  0  0  0  0  0  0  0
    3.8063   -3.2590    0.0000 C   0  0  0  0  0  0  0  0  0  0  0  0
    3.0325   -3.0051    0.0000 C   0  0  0  0  0  0  0  0  0  0  0  0
    2.4253   -3.5527    0.0000 C   0  0  0  0  0  0  0  0  0  0  0  0
    2.5951   -4.3461    0.0000 C   0  0  0  0  0  0  0  0  0  0  0  0
    7.9665   -4.3100    0.0000 C   0  0  0  0  0  0  0  0  0  0  0  0
    8.7428   -4.0549    0.0000 C   0  0  0  0  0  0  0  0  0  0  0  0
    7.3574   -3.7652    0.0000 C   0  0  0  0  0  0  0  0  0  0  0  0
    8.1760   -3.5164    0.0000 C   0  0  0  0  0  0  0  0  0  0  0  0
  2  3  1  0
  1  2  2  0
  3  4  2  0
  4  5  1  0
  5  1  1  0
  3  6  1  0
  6  7  1  0
  6  8  2  0
  4  9  1  0
  5 10  1  0
 11 12  2  0
 12 16  1  0
 15 13  1  0
 13 14  2  0
 14 11  1  0
  2 11  1  0
 15 16  2  0
 16 17  1  0
 17 18  2  0
 18 19  1  0
 19 20  2  0
 20 15  1  0
 10 21  1  0
 21 22  1  0
 21 23  1  0
 21 24  1  0
M  END
>  <chembl_id>  (56) 
CHEMBL3108992

$$$$
CHEMBL3120354
     RDKit          2D

 24 27  0  0  0  0  0  0  0  0999 V2000
   30.9212  -15.7455    0.0000 C   0  0  0  0  0  0  0  0  0  0  0  0
   31.6361  -16.1584    0.0000 C   0  0  0  0  0  0  0  0  0  0  0  0
   32.3498  -14.9144    0.0000 C   0  0  0  0  0  0  0  0  0  0  0  0
   32.3532  -15.7476    0.0000 C   0  0  0  0  0  0  0  0  0  0  0  0
   33.0724  -16.1589    0.0000 O   0  0  0  0  0  0  0  0  0  0  0  0
   33.7929  -15.7417    0.0000 C   0  0  0  0  0  0  0  0  0  0  0  0
   33.7895  -14.9085    0.0000 C   0  0  0  0  0  0  0  0  0  0  0  0
   33.0656  -14.4926    0.0000 C   0  0  0  0  0  0  0  0  0  0  0  0
   34.5085  -16.1522    0.0000 O   0  0  0  0  0  0  0  0  0  0  0  0
   33.0611  -13.6676    0.0000 C   0  0  0  0  0  0  0  0  0  0  0  0
   33.7733  -13.2511    0.0000 O   0  0  0  0  0  0  0  0  0  0  0  0
   33.7688  -12.4260    0.0000 C   0  0  0  0  0  0  0  0  0  0  0  0
   34.4793  -12.0124    0.0000 C   0  0  0  0  0  0  0  0  0  0  0  0
   34.4752  -11.1882    0.0000 C   0  0  0  0  0  0  0  0  0  0  0  0
   33.7578  -10.7788    0.0000 C   0  0  0  0  0  0  0  0  0  0  0  0
   33.0432  -11.1996    0.0000 C   0  0  0  0  0  0  0  0  0  0  0  0
   33.0510  -12.0225    0.0000 C   0  0  0  0  0  0  0  0  0  0  0  0
   35.1876  -10.7720    0.0000 I   0  0  0  0  0  0  0  0  0  0  0  0
   30.9223  -14.9180    0.0000 C   0  0  0  0  0  0  0  0  0  0  0  0
   31.6332  -14.5065    0.0000 C   0  0  0  0  0  0  0  0  0  0  0  0
   31.6312  -13.6870    0.0000 C   0  0  0  0  0  0  0  0  0  0  0  0
   30.9191  -13.2779    0.0000 C   0  0  0  0  0  0  0  0  0  0  0  0
   30.2075  -13.6946    0.0000 C   0  0  0  0  0  0  0  0  0  0  0  0
   30.2131  -14.5129    0.0000 C   0  0  0  0  0  0  0  0  0  0  0  0
 19  1  2  0
  1  2  1  0
  2  4  2  0
  3 20  2  0
  3  4  1  0
  3  8  1  0
  4  5  1  0
  5  6  1  0
  6  7  1  0
  7  8  2  0
  6  9  2  0
  8 10  1  0
 10 11  1  0
 11 12  1  0
 12 13  2  0
 13 14  1  0
 14 15  2  0
 15 16  1  0
 16 17  2  0
 17 12  1  0
 14 18  1  0
 19 20  1  0
 20 21  1  0
 21 22  2  0
 22 23  1  0
 23 24  2  0
 24 19  1  0
M  END
>  <chembl_id>  (57) 
CHEMBL3120354

$$$$
CHEMBL3210549
     RDKit          2D

 25 27  0  0  1  0  0  0  0  0999 V2000
    1.2964   -2.6973    0.0000 O   0  0  0  0  0  0  0  0  0  0  0  0
   -5.2109   -0.7445    0.0000 O   0  0  0  0  0  0  0  0  0  0  0  0
   -3.9141   -2.6966    0.0000 O   0  0  0  0  0  0  0  0  0  0  0  0
    3.6321    1.3486    0.0000 O   0  0  0  0  0  0  0  0  0  0  0  0
   -1.2964    1.4973    0.0000 N   0  0  0  0  0  0  0  0  0  0  0  0
    1.2964    1.4973    0.0000 N   0  0  0  0  0  0  0  0  0  0  0  0
    2.5929   -0.7486    0.0000 N   0  0  0  0  0  0  0  0  0  0  0  0
   -1.2964   -1.4973    0.0000 C   0  0  0  0  0  0  0  0  0  0  0  0
    0.0000   -0.7486    0.0000 C   0  0  0  0  0  0  0  0  0  0  0  0
   -2.6111   -0.7486    0.0000 C   0  0  0  0  0  0  0  0  0  0  0  0
    0.0000    0.7486    0.0000 C   0  0  0  0  0  0  0  0  0  0  0  0
   -2.6111    0.7486    0.0000 C   0  0  0  0  0  0  0  0  0  0  0  0
    1.2964   -1.4973    0.0000 C   0  0  0  0  0  0  0  0  0  0  0  0
   -1.2919   -2.9980    0.0000 C   0  0  0  0  0  0  0  0  0  0  0  0
   -3.9122   -1.4966    0.0000 C   0  0  0  0  0  0  0  0  0  0  0  0
    2.5929    0.7486    0.0000 C   0  0  0  0  0  0  0  0  0  0  0  0
   -2.5891   -3.7515    0.0000 C   0  0  0  0  0  0  0  0  0  0  0  0
    0.0089   -3.7449    0.0000 C   0  0  0  0  0  0  0  0  0  0  0  0
   -3.6486    1.3517    0.0000 C   0  0  0  0  0  0  0  0  0  0  0  0
   -2.5853   -5.2515    0.0000 C   0  0  0  0  0  0  0  0  0  0  0  0
    0.0127   -5.2449    0.0000 C   0  0  0  0  0  0  0  0  0  0  0  0
   -1.2844   -5.9982    0.0000 C   0  0  0  0  0  0  0  0  0  0  0  0
   -6.5121   -1.4924    0.0000 C   0  0  0  0  0  0  0  0  0  0  0  0
   -7.8109   -0.7403    0.0000 C   0  0  0  0  0  0  0  0  0  0  0  0
   -8.8513   -1.3383    0.0000 C   0  0  0  0  0  0  0  0  0  0  0  0
  1 13  1  0
  2 15  1  0
  2 23  1  0
  3 15  1  0
  4 16  1  0
  5 11  1  0
  5 12  2  0
  6 11  1  0
  6 16  2  0
  7 13  2  0
  7 16  1  0
  8  9  1  0
  8 10  1  0
  8 14  1  0
  9 11  2  0
  9 13  1  0
 10 12  1  0
 10 15  2  0
 12 19  1  0
 14 17  2  0
 14 18  1  0
 17 20  1  0
 18 21  2  0
 20 22  2  0
 21 22  1  0
 23 24  1  0
 24 25  2  0
M  END
>  <chembl_id>  (58) 
CHEMBL3210549

$$$$
CHEMBL3213825
     RDKit          2D

 25 27  0  0  0  0  0  0  0  0999 V2000
   -9.2138    5.2026    0.0000 O   0  0  0  0  0  0  0  0  0  0  0  0
   -2.5987    1.5004    0.0000 N   0  0  0  0  0  0  0  0  0  0  0  0
   -7.3271    3.0485    0.0000 N   0  0  0  0  0  0  0  0  0  0  0  0
   -8.8198    2.8923    0.0000 N   0  0  0  0  0  0  0  0  0  0  0  0
  -14.1780    3.6320    0.0000 N   0  0  0  0  0  0  0  0  0  0  0  0
   -3.9492    0.8772    0.0000 C   0  0  0  0  0  0  0  0  0  0  0  0
   -4.9546    1.9903    0.0000 C   0  0  0  0  0  0  0  0  0  0  0  0
   -2.7390    2.9810    0.0000 C   0  0  0  0  0  0  0  0  0  0  0  0
   -1.2990    0.7500    0.0000 C   0  0  0  0  0  0  0  0  0  0  0  0
   -4.2067    3.2905    0.0000 C   0  0  0  0  0  0  0  0  0  0  0  0
   -6.4447    1.8344    0.0000 C   0  0  0  0  0  0  0  0  0  0  0  0
    0.0000    1.5000    0.0000 C   0  0  0  0  0  0  0  0  0  0  0  0
   -1.2990   -0.7500    0.0000 C   0  0  0  0  0  0  0  0  0  0  0  0
   -4.1898   -0.2984    0.0000 C   0  0  0  0  0  0  0  0  0  0  0  0
   -1.8437    3.7801    0.0000 C   0  0  0  0  0  0  0  0  0  0  0  0
    1.2990    0.7500    0.0000 C   0  0  0  0  0  0  0  0  0  0  0  0
    0.0000   -1.5000    0.0000 C   0  0  0  0  0  0  0  0  0  0  0  0
    1.2990   -0.7500    0.0000 C   0  0  0  0  0  0  0  0  0  0  0  0
   -9.7021    4.1064    0.0000 C   0  0  0  0  0  0  0  0  0  0  0  0
  -11.1948    3.9502    0.0000 C   0  0  0  0  0  0  0  0  0  0  0  0
  -12.0784    5.1624    0.0000 C   0  0  0  0  0  0  0  0  0  0  0  0
  -11.8029    2.5790    0.0000 C   0  0  0  0  0  0  0  0  0  0  0  0
  -13.5700    5.0033    0.0000 C   0  0  0  0  0  0  0  0  0  0  0  0
  -13.2944    2.4199    0.0000 C   0  0  0  0  0  0  0  0  0  0  0  0
    2.3383   -1.3500    0.0000 C   0  0  0  0  0  0  0  0  0  0  0  0
  1 19  2  0
  2  6  1  0
  2  8  1  0
  2  9  1  0
  3  4  1  0
  3 11  2  0
  4 19  1  0
  5 23  2  0
  5 24  1  0
  6  7  2  0
  6 14  1  0
  7 10  1  0
  7 11  1  0
  8 10  2  0
  8 15  1  0
  9 12  2  0
  9 13  1  0
 12 16  1  0
 13 17  2  0
 16 18  2  0
 17 18  1  0
 18 25  1  0
 19 20  1  0
 20 21  2  0
 20 22  1  0
 21 23  1  0
 22 24  2  0
M  END
>  <chembl_id>  (59) 
CHEMBL3213825

$$$$
CHEMBL3230839
     RDKit          2D

 14 15  0  0  0  0  0  0  0  0999 V2000
    8.6383   -4.6308    0.0000 P   0  0  0  0  0  0  0  0  0  0  0  0
    9.3440   -5.0435    0.0000 N   0  0  0  0  0  0  0  0  0  0  0  0
    9.3399   -4.2015    0.0000 C   0  0  0  0  0  0  0  0  0  0  0  0
    7.9408   -5.0435    0.0000 O   0  0  0  0  0  0  0  0  0  0  0  0
    7.9284   -4.2222    0.0000 O   0  0  0  0  0  0  0  0  0  0  0  0
    9.3440   -5.8607    0.0000 C   0  0  0  0  0  0  0  0  0  0  0  0
    8.6383   -6.2651    0.0000 C   0  0  0  0  0  0  0  0  0  0  0  0
    7.9408   -5.8607    0.0000 C   0  0  0  0  0  0  0  0  0  0  0  0
    8.6362   -7.0823    0.0000 Br  0  0  0  0  0  0  0  0  0  0  0  0
   10.0621   -4.5975    0.0000 C   0  0  0  0  0  0  0  0  0  0  0  0
   10.7632   -4.1689    0.0000 C   0  0  0  0  0  0  0  0  0  0  0  0
   10.7427   -3.3458    0.0000 C   0  0  0  0  0  0  0  0  0  0  0  0
   10.0152   -2.9531    0.0000 C   0  0  0  0  0  0  0  0  0  0  0  0
    9.3170   -3.3839    0.0000 C   0  0  0  0  0  0  0  0  0  0  0  0
  2  1  1  0
  3  1  1  0
  4  1  1  0
  5  1  2  0
  6  2  1  0
  7  8  1  0
  8  4  1  0
  6  7  1  0
  7  9  1  0
  3 10  2  0
 10 11  1  0
 11 12  2  0
 12 13  1  0
 13 14  2  0
 14  3  1  0
M  END
>  <chembl_id>  (60) 
CHEMBL3230839

$$$$
CHEMBL3302628
     RDKit          2D

 30 35  0  0  0  0  0  0  0  0999 V2000
   18.7906  -14.5096    0.0000 C   0  0  0  0  0  0  0  0  0  0  0  0
   18.0915  -14.9462    0.0000 N   0  0  0  0  0  0  0  0  0  0  0  0
   17.3702  -14.5444    0.0000 C   0  0  0  0  0  0  0  0  0  0  0  0
   17.3791  -13.7179    0.0000 C   0  0  0  0  0  0  0  0  0  0  0  0
   18.0479  -13.2365    0.0000 C   0  0  0  0  0  0  0  0  0  0  0  0
   18.0922  -12.4119    0.0000 C   0  0  0  0  0  0  0  0  0  0  0  0
   18.8282  -12.0421    0.0000 C   0  0  0  0  0  0  0  0  0  0  0  0
   19.5167  -12.4921    0.0000 C   0  0  0  0  0  0  0  0  0  0  0  0
   19.4687  -13.3085    0.0000 C   0  0  0  0  0  0  0  0  0  0  0  0
   18.7388  -13.6795    0.0000 C   0  0  0  0  0  0  0  0  0  0  0  0
   19.5172  -14.8947    0.0000 C   0  0  0  0  0  0  0  0  0  0  0  0
   19.5483  -15.7182    0.0000 C   0  0  0  0  0  0  0  0  0  0  0  0
   18.8496  -16.1569    0.0000 C   0  0  0  0  0  0  0  0  0  0  0  0
   18.1190  -15.7718    0.0000 C   0  0  0  0  0  0  0  0  0  0  0  0
   17.4719  -11.8530    0.0000 C   0  0  0  0  0  0  0  0  0  0  0  0
   16.6635  -12.0209    0.0000 C   0  0  0  0  0  0  0  0  0  0  0  0
   16.2662  -12.7332    0.0000 C   0  0  0  0  0  0  0  0  0  0  0  0
   16.5870  -13.4914    0.0000 C   0  0  0  0  0  0  0  0  0  0  0  0
   16.0871  -14.1516    0.0000 C   0  0  0  0  0  0  0  0  0  0  0  0
   15.2663  -14.0494    0.0000 C   0  0  0  0  0  0  0  0  0  0  0  0
   14.9496  -13.2871    0.0000 C   0  0  0  0  0  0  0  0  0  0  0  0
   15.4454  -12.6310    0.0000 C   0  0  0  0  0  0  0  0  0  0  0  0
   19.8583  -16.4851    0.0000 O   0  0  0  0  0  0  0  0  0  0  0  0
   20.2669  -15.3091    0.0000 C   0  0  0  0  0  0  0  0  0  0  0  0
   20.9767  -15.7313    0.0000 C   0  0  0  0  0  0  0  0  0  0  0  0
   21.6942  -15.3241    0.0000 C   0  0  0  0  0  0  0  0  0  0  0  0
   21.7004  -14.4976    0.0000 C   0  0  0  0  0  0  0  0  0  0  0  0
   20.9832  -14.0800    0.0000 C   0  0  0  0  0  0  0  0  0  0  0  0
   20.2687  -14.4895    0.0000 C   0  0  0  0  0  0  0  0  0  0  0  0
   22.4148  -14.0904    0.0000 Br  0  0  0  0  0  0  0  0  0  0  0  0
  1  2  1  0
  2  3  1  0
  4  3  1  6
  4  5  1  0
  5  6  2  0
  6  7  1  0
  7  8  2  0
  8  9  1  0
  9 10  2  0
  1 10  1  0
  5 10  1  0
 11 12  1  0
 12 13  1  0
 13 14  1  0
  1 11  1  1
  2 14  1  0
 15 16  1  0
 16 17  1  0
 17 18  2  0
 19 20  2  0
 20 21  1  0
 21 22  2  0
 17 22  1  0
 18 19  1  0
  4 18  1  0
  6 15  1  0
 12 23  1  6
 12 24  1  0
 24 25  2  0
 25 26  1  0
 26 27  2  0
 27 28  1  0
 28 29  2  0
 29 24  1  0
 27 30  1  0
M  END
>  <chembl_id>  (61) 
CHEMBL3302628

$$$$
CHEMBL3353528
     RDKit          2D

 35 38  0  0  0  0  0  0  0  0999 V2000
    6.6807  -15.0174    0.0000 C   0  0  0  0  0  0  0  0  0  0  0  0
    6.2721  -15.7224    0.0000 C   0  0  0  0  0  0  0  0  0  0  0  0
    5.4549  -15.7224    0.0000 C   0  0  0  0  0  0  0  0  0  0  0  0
    5.0464  -16.4315    0.0000 C   0  0  0  0  0  0  0  0  0  0  0  0
    6.2721  -14.3083    0.0000 O   0  0  0  0  0  0  0  0  0  0  0  0
    7.4979  -15.0174    0.0000 O   0  0  0  0  0  0  0  0  0  0  0  0
    5.4549  -17.1364    0.0000 N   0  0  0  0  0  0  0  0  0  0  0  0
    5.0464  -17.8455    0.0000 C   0  0  0  0  0  0  0  0  0  0  0  0
    2.4555  -19.1611    0.0000 N   0  0  0  0  0  0  0  0  0  0  0  0
    1.7124  -18.8308    0.0000 N   0  0  0  0  0  0  0  0  0  0  0  0
    1.7964  -18.0163    0.0000 C   0  0  0  0  0  0  0  0  0  0  0  0
    2.5948  -17.8455    0.0000 C   0  0  0  0  0  0  0  0  0  0  0  0
    3.0034  -17.1364    0.0000 C   0  0  0  0  0  0  0  0  0  0  0  0
    3.8206  -17.1364    0.0000 C   0  0  0  0  0  0  0  0  0  0  0  0
    4.2292  -17.8455    0.0000 C   0  0  0  0  0  0  0  0  0  0  0  0
    3.8206  -18.5546    0.0000 C   0  0  0  0  0  0  0  0  0  0  0  0
    3.0034  -18.5546    0.0000 C   0  0  0  0  0  0  0  0  0  0  0  0
    6.2721  -17.1364    0.0000 C   0  0  0  0  0  0  0  0  0  0  0  0
    6.6807  -16.4315    0.0000 O   0  0  0  0  0  0  0  0  0  0  0  0
    7.3898  -17.4369    0.0000 N   0  0  0  0  0  0  0  0  0  0  0  0
    6.6807  -17.8455    0.0000 C   0  0  0  0  0  0  0  0  0  0  0  0
    7.0893  -18.5546    0.0000 C   0  0  0  0  0  0  0  0  0  0  0  0
    7.7984  -18.1460    0.0000 C   0  0  0  0  0  0  0  0  0  0  0  0
    5.9716  -18.2541    0.0000 C   0  0  0  0  0  0  0  0  0  0  0  0
    7.5989  -16.6495    0.0000 C   0  0  0  0  0  0  0  0  0  0  0  0
    7.0205  -16.0712    0.0000 O   0  0  0  0  0  0  0  0  0  0  0  0
    8.3904  -16.4364    0.0000 C   0  0  0  0  0  0  0  0  0  0  0  0
    8.9646  -17.0147    0.0000 C   0  0  0  0  0  0  0  0  0  0  0  0
    8.7556  -17.8021    0.0000 C   0  0  0  0  0  0  0  0  0  0  0  0
    9.3339  -18.3805    0.0000 C   0  0  0  0  0  0  0  0  0  0  0  0
   10.1213  -18.1715    0.0000 C   0  0  0  0  0  0  0  0  0  0  0  0
   10.3345  -17.3800    0.0000 C   0  0  0  0  0  0  0  0  0  0  0  0
    9.7561  -16.8057    0.0000 C   0  0  0  0  0  0  0  0  0  0  0  0
   11.1260  -17.1709    0.0000 C   0  0  0  0  0  0  0  0  0  0  0  0
    9.1208  -19.1720    0.0000 C   0  0  0  0  0  0  0  0  0  0  0  0
  1  2  1  0
  2  3  1  0
  3  4  1  0
  1  5  2  0
  1  6  1  0
  9 10  1  0
 10 11  2  0
 11 12  1  0
 12 13  2  0
 13 14  1  0
 14 15  2  0
 15 16  1  0
 16 17  2  0
  9 17  1  0
 12 17  1  0
  8 15  1  0
  7  8  1  0
 18 19  2  0
 20 21  1  0
 21 22  1  0
 22 23  1  0
 20 23  1  0
 18 21  1  0
 21 24  1  0
 25 26  2  0
 25 27  1  0
 28 29  2  0
 29 30  1  0
 30 31  2  0
 31 32  1  0
 32 33  2  0
 28 33  1  0
 32 34  1  0
 30 35  1  0
 27 28  1  0
 20 25  1  0
  7 18  1  0
  4  7  1  0
M  END
>  <chembl_id>  (62) 
CHEMBL3353528

$$$$
CHEMBL3416769
     RDKit          2D

 30 33  0  0  0  0  0  0  0  0999 V2000
    8.4991   -8.2703    0.0000 C   0  0  0  0  0  0  0  0  0  0  0  0
    8.4131  -13.2991    0.0000 C   0  0  0  0  0  0  0  0  0  0  0  0
    8.1617  -12.4869    0.0000 C   0  0  0  0  0  0  0  0  0  0  0  0
    9.7103   -8.6442    0.0000 S   0  0  0  0  0  0  0  0  0  0  0  0
    7.8272  -10.8972    0.0000 O   0  0  0  0  0  0  0  0  0  0  0  0
    9.5685  -12.0514    0.0000 C   0  0  0  0  0  0  0  0  0  0  0  0
    8.7393  -11.8630    0.0000 C   0  0  0  0  0  0  0  0  0  0  0  0
    7.6349   -8.4098    0.0000 C   0  0  0  0  0  0  0  0  0  0  0  0
    8.9131  -14.9241    0.0000 C   0  0  0  0  0  0  0  0  0  0  0  0
    9.2422  -13.4875    0.0000 C   0  0  0  0  0  0  0  0  0  0  0  0
    9.8199  -12.8637    0.0000 C   0  0  0  0  0  0  0  0  0  0  0  0
    8.2501  -14.7722    0.0000 O   0  0  0  0  0  0  0  0  0  0  0  0
    8.8366  -17.1734    0.0000 C   0  0  0  0  0  0  0  0  0  0  0  0
    7.3334   -9.2197    0.0000 C   0  0  0  0  0  0  0  0  0  0  0  0
   10.5504   -9.9559    0.0000 C   0  0  0  0  0  0  0  0  0  0  0  0
    9.9077  -10.5620    0.0000 C   0  0  0  0  0  0  0  0  0  0  0  0
    8.5852  -16.3612    0.0000 C   0  0  0  0  0  0  0  0  0  0  0  0
    8.4901  -11.0496    0.0000 C   0  0  0  0  0  0  0  0  0  0  0  0
    9.0693  -10.4256    0.0000 N   0  0  0  0  0  0  0  0  0  0  0  0
   10.2435  -16.7380    0.0000 C   0  0  0  0  0  0  0  0  0  0  0  0
    9.6657  -17.3618    0.0000 C   0  0  0  0  0  0  0  0  0  0  0  0
    8.8377   -9.7795    0.0000 C   0  0  0  0  0  0  0  0  0  0  0  0
    9.1630  -15.7373    0.0000 C   0  0  0  0  0  0  0  0  0  0  0  0
    9.9921  -15.9258    0.0000 C   0  0  0  0  0  0  0  0  0  0  0  0
    9.4920  -14.3007    0.0000 N   0  0  0  0  0  0  0  0  0  0  0  0
    7.8963   -9.8902    0.0000 C   0  0  0  0  0  0  0  0  0  0  0  0
   10.4543   -9.0639    0.0000 C   0  0  0  0  0  0  0  0  0  0  0  0
    9.1391   -8.9696    0.0000 C   0  0  0  0  0  0  0  0  0  0  0  0
    9.7088   -7.9640    0.0000 O   0  0  0  0  0  0  0  0  0  0  0  0
    7.9219  -16.2104    0.0000 C   0  0  0  0  0  0  0  0  0  0  0  0
 19 18  1  0
 28  1  2  0
 24 23  2  0
 27 15  1  0
  9 23  1  0
  8 14  2  0
  3  7  1  0
 22 28  1  0
 20 24  1  0
  4 27  1  0
  1  8  1  0
  6 11  1  0
  7  6  2  0
 14 26  1  0
 11 10  2  0
 22 19  1  0
 18  5  2  0
 17 13  2  0
 19 16  1  0
 21 20  2  0
 23 17  1  0
  2  3  2  0
 10 25  1  0
 16 15  1  0
  9 12  2  0
 26 22  2  0
 25  9  1  0
 28  4  1  0
 13 21  1  0
 18  7  1  0
 10  2  1  0
  4 29  1  0
 17 30  1  0
M  CHG  2   4   1  29  -1
M  END
>  <chembl_id>  (63) 
CHEMBL3416769

$$$$
CHEMBL3422462
     RDKit          2D

 33 36  0  0  0  0  0  0  0  0999 V2000
    6.5818    7.5643    0.0000 O   0  0  0  0  0  0  0  0  0  0  0  0
    7.4092    6.6952    0.0000 S   0  0  0  0  0  0  0  0  0  0  0  0
    6.2428    6.4133    0.0000 O   0  0  0  0  0  0  0  0  0  0  0  0
    4.2010   -3.2956    0.0000 C   0  0  0  0  0  0  0  0  0  0  0  0
    4.9531   -1.9978    0.0000 C   0  0  0  0  0  0  0  0  0  0  0  0
    3.9511   -0.8815    0.0000 C   0  0  0  0  0  0  0  0  0  0  0  0
    2.5987   -1.5004    0.0000 N   0  0  0  0  0  0  0  0  0  0  0  0
    2.7343   -2.9815    0.0000 N   0  0  0  0  0  0  0  0  0  0  0  0
    4.8054   -4.6666    0.0000 C   0  0  0  0  0  0  0  0  0  0  0  0
    5.9984   -4.7960    0.0000 O   0  0  0  0  0  0  0  0  0  0  0  0
    4.0971   -5.6353    0.0000 O   0  0  0  0  0  0  0  0  0  0  0  0
    4.2567    0.5878    0.0000 C   0  0  0  0  0  0  0  0  0  0  0  0
    1.2990   -0.7500    0.0000 C   0  0  0  0  0  0  0  0  0  0  0  0
    1.2990    0.7500    0.0000 C   0  0  0  0  0  0  0  0  0  0  0  0
    0.0000    1.5000    0.0000 C   0  0  0  0  0  0  0  0  0  0  0  0
   -1.2990    0.7500    0.0000 C   0  0  0  0  0  0  0  0  0  0  0  0
   -1.2990   -0.7500    0.0000 C   0  0  0  0  0  0  0  0  0  0  0  0
    0.0000   -1.5000    0.0000 C   0  0  0  0  0  0  0  0  0  0  0  0
    0.0000    2.7000    0.0000 Cl  0  0  0  0  0  0  0  0  0  0  0  0
   -2.3383    1.3500    0.0000 Cl  0  0  0  0  0  0  0  0  0  0  0  0
    3.2235    1.6679    0.0000 C   0  0  0  0  0  0  0  0  0  0  0  0
    3.6446    3.1076    0.0000 C   0  0  0  0  0  0  0  0  0  0  0  0
    5.1019    3.4627    0.0000 C   0  0  0  0  0  0  0  0  0  0  0  0
    6.1382    2.3782    0.0000 C   0  0  0  0  0  0  0  0  0  0  0  0
    5.7171    0.9385    0.0000 C   0  0  0  0  0  0  0  0  0  0  0  0
    5.5263    4.9023    0.0000 C   0  0  0  0  0  0  0  0  0  0  0  0
    6.9849    5.2556    0.0000 N   0  0  0  0  0  0  0  0  0  0  0  0
    8.8679    7.0484    0.0000 C   0  0  0  0  0  0  0  0  0  0  0  0
    9.9026    5.9624    0.0000 C   0  0  0  0  0  0  0  0  0  0  0  0
   11.3604    6.3155    0.0000 C   0  0  0  0  0  0  0  0  0  0  0  0
   11.7836    7.7546    0.0000 C   0  0  0  0  0  0  0  0  0  0  0  0
   10.7489    8.8406    0.0000 C   0  0  0  0  0  0  0  0  0  0  0  0
    9.2911    8.4875    0.0000 C   0  0  0  0  0  0  0  0  0  0  0  0
  2  1  2  0
  3  2  2  0
  4  5  1  0
  5  6  2  0
  6  7  1  0
  7  8  1  0
  8  4  2  0
  9 10  1  0
  9 11  2  0
  4  9  1  0
  6 12  1  0
 13 14  2  0
 14 15  1  0
 15 16  2  0
 16 17  1  0
 17 18  2  0
 18 13  1  0
  7 13  1  0
 15 19  1  0
 16 20  1  0
 12 21  2  0
 21 22  1  0
 22 23  2  0
 23 24  1  0
 24 25  2  0
 25 12  1  0
 23 26  1  0
 26 27  1  0
 27  2  1  0
  2 28  1  0
 28 29  2  0
 29 30  1  0
 30 31  2  0
 31 32  1  0
 32 33  2  0
 33 28  1  0
M  END
>  <chembl_id>  (64) 
CHEMBL3422462

$$$$
CHEMBL3447703
     RDKit          2D

 25 27  0  0  0  0  0  0  0  0999 V2000
    4.9336   -3.1588    0.0000 O   0  0  0  0  0  0  0  0  0  0  0  0
    3.8933   -3.7570    0.0000 C   0  0  0  0  0  0  0  0  0  0  0  0
    3.8916   -4.9570    0.0000 O   0  0  0  0  0  0  0  0  0  0  0  0
    2.5951   -3.0039    0.0000 C   0  0  0  0  0  0  0  0  0  0  0  0
    2.5973   -1.5031    0.0000 O   0  0  0  0  0  0  0  0  0  0  0  0
    1.2990   -0.7500    0.0000 C   0  0  0  0  0  0  0  0  0  0  0  0
    1.2990    0.7500    0.0000 C   0  0  0  0  0  0  0  0  0  0  0  0
    0.0000    1.5000    0.0000 C   0  0  0  0  0  0  0  0  0  0  0  0
   -1.2990    0.7500    0.0000 C   0  0  0  0  0  0  0  0  0  0  0  0
   -2.6003    1.4977    0.0000 C   0  0  0  0  0  0  0  0  0  0  0  0
   -3.8990    0.7455    0.0000 N   0  0  0  0  0  0  0  0  0  0  0  0
   -5.2007    1.4909    0.0000 C   0  0  0  0  0  0  0  0  0  0  0  0
   -6.4972    0.7364    0.0000 C   0  0  0  0  0  0  0  0  0  0  0  0
   -6.4920   -0.7636    0.0000 C   0  0  0  0  0  0  0  0  0  0  0  0
   -5.1903   -1.5091    0.0000 C   0  0  0  0  0  0  0  0  0  0  0  0
   -5.1821   -3.0099    0.0000 C   0  0  0  0  0  0  0  0  0  0  0  0
   -3.8787   -3.7540    0.0000 C   0  0  0  0  0  0  0  0  0  0  0  0
   -3.8682   -5.2539    0.0000 C   0  0  0  0  0  0  0  0  0  0  0  0
   -2.5640   -5.9949    0.0000 C   0  0  0  0  0  0  0  0  0  0  0  0
   -1.2702   -5.2360    0.0000 C   0  0  0  0  0  0  0  0  0  0  0  0
   -1.2805   -3.7360    0.0000 N   0  0  0  0  0  0  0  0  0  0  0  0
   -2.5847   -2.9950    0.0000 C   0  0  0  0  0  0  0  0  0  0  0  0
   -3.8939   -0.7546    0.0000 C   0  0  0  0  0  0  0  0  0  0  0  0
   -1.2990   -0.7500    0.0000 C   0  0  0  0  0  0  0  0  0  0  0  0
    0.0000   -1.5000    0.0000 C   0  0  0  0  0  0  0  0  0  0  0  0
  1  2  1  0
  2  3  2  0
  2  4  1  0
  4  5  1  0
  5  6  1  0
  6  7  2  0
  7  8  1  0
  8  9  2  0
  9 10  1  0
 10 11  1  0
 11 12  1  0
 12 13  1  0
 13 14  1  0
 14 15  1  0
 15 16  1  0
 16 17  1  0
 17 18  2  0
 18 19  1  0
 19 20  2  0
 20 21  1  0
 21 22  2  0
 22 17  1  0
 15 23  1  0
 23 11  1  0
  9 24  1  0
 24 25  2  0
 25  6  1  0
M  END
>  <chembl_id>  (65) 
CHEMBL3447703

$$$$
CHEMBL3477126
     RDKit          2D

 24 25  0  0  1  0  0  0  0  0999 V2000
    3.6331   -3.6060    0.0000 C   0  0  0  0  0  0  0  0  0  0  0  0
    2.5951   -3.0039    0.0000 C   0  0  0  0  0  0  0  0  0  0  0  0
    1.5548   -3.6021    0.0000 C   0  0  0  0  0  0  0  0  0  0  0  0
    2.5973   -1.5031    0.0000 C   0  0  0  0  0  0  0  0  0  0  0  0
    1.2990   -0.7500    0.0000 C   0  0  0  0  0  0  0  0  0  0  0  0
    1.2990    0.7500    0.0000 C   0  0  0  0  0  0  0  0  0  0  0  0
    0.0000    1.5000    0.0000 C   0  0  0  0  0  0  0  0  0  0  0  0
   -1.2990    0.7500    0.0000 N   0  0  0  0  0  0  0  0  0  0  0  0
   -1.2990   -0.7500    0.0000 C   0  0  0  0  0  0  0  0  0  0  0  0
   -2.3383   -1.3500    0.0000 C   0  0  0  0  0  0  0  0  0  0  0  0
    0.0000   -1.5000    0.0000 N   0  0  0  0  0  0  0  0  0  0  0  0
   -0.0031    3.0008    0.0000 C   0  0  0  0  0  0  0  0  0  0  0  0
    1.0351    3.6026    0.0000 O   0  0  0  0  0  0  0  0  0  0  0  0
   -1.3039    3.7494    0.0000 N   0  0  0  0  0  0  0  0  0  0  0  0
   -1.4470    5.2297    0.0000 C   0  0  0  0  0  0  0  0  0  0  0  0
   -2.9153    5.5365    0.0000 C   0  0  0  0  0  0  0  0  0  0  0  0
   -3.5266    6.9044    0.0000 C   0  0  0  0  0  0  0  0  0  0  0  0
   -2.6469    8.1204    0.0000 N   0  0  0  0  0  0  0  0  0  0  0  0
   -3.1365    9.2159    0.0000 C   0  0  0  0  0  0  0  0  0  0  0  0
   -1.4532    7.9970    0.0000 C   0  0  0  0  0  0  0  0  0  0  0  0
   -3.6607    4.2349    0.0000 C   0  0  0  0  0  0  0  0  0  0  0  0
   -5.1506    4.0762    0.0000 C   0  0  0  0  0  0  0  0  0  0  0  0
   -5.8579    5.0455    0.0000 O   0  0  0  0  0  0  0  0  0  0  0  0
   -2.6532    3.1236    0.0000 C   0  0  0  0  0  0  0  0  0  0  0  0
  1  2  1  0
  2  3  1  0
  2  4  1  0
  4  5  1  0
  5  6  2  0
  6  7  1  0
  7  8  2  0
  8  9  1  0
  9 10  1  0
  9 11  2  0
 11  5  1  0
  7 12  1  0
 12 13  2  0
 12 14  1  0
 14 15  1  0
 15 16  1  0
 16 17  1  6
 17 18  1  0
 18 19  1  0
 18 20  1  0
 16 21  1  0
 21 22  1  6
 22 23  1  0
 21 24  1  0
 24 14  1  0
M  END
>  <chembl_id>  (66) 
CHEMBL3477126

$$$$
CHEMBL3487480
     RDKit          2D

 24 27  0  0  0  0  0  0  0  0999 V2000
   -2.5825    3.5975    0.0000 C   0  0  0  0  0  0  0  0  0  0  0  0
   -3.6203    2.9951    0.0000 C   0  0  0  0  0  0  0  0  0  0  0  0
   -4.9210    3.7422    0.0000 C   0  0  0  0  0  0  0  0  0  0  0  0
   -6.2184    2.9893    0.0000 N   0  0  0  0  0  0  0  0  0  0  0  0
   -7.5214    3.7341    0.0000 C   0  0  0  0  0  0  0  0  0  0  0  0
   -8.8184    2.9789    0.0000 C   0  0  0  0  0  0  0  0  0  0  0  0
  -10.1217    3.7214    0.0000 C   0  0  0  0  0  0  0  0  0  0  0  0
  -11.4165    2.9640    0.0000 N   0  0  0  0  0  0  0  0  0  0  0  0
  -11.4079    1.4640    0.0000 C   0  0  0  0  0  0  0  0  0  0  0  0
  -12.4437    0.8581    0.0000 C   0  0  0  0  0  0  0  0  0  0  0  0
  -10.1046    0.7215    0.0000 C   0  0  0  0  0  0  0  0  0  0  0  0
   -8.8099    1.4789    0.0000 N   0  0  0  0  0  0  0  0  0  0  0  0
   -6.2150    1.4893    0.0000 C   0  0  0  0  0  0  0  0  0  0  0  0
   -4.9143    0.7422    0.0000 C   0  0  0  0  0  0  0  0  0  0  0  0
   -3.6168    1.4950    0.0000 N   0  0  0  0  0  0  0  0  0  0  0  0
   -2.3155    0.7475    0.0000 C   0  0  0  0  0  0  0  0  0  0  0  0
   -2.3155   -0.7475    0.0000 C   0  0  0  0  0  0  0  0  0  0  0  0
   -1.0028   -1.5132    0.0000 C   0  0  0  0  0  0  0  0  0  0  0  0
    0.2917   -0.7475    0.0000 C   0  0  0  0  0  0  0  0  0  0  0  0
    1.7138   -1.2033    0.0000 N   0  0  0  0  0  0  0  0  0  0  0  0
    2.5889    0.0182    0.0000 N   0  0  0  0  0  0  0  0  0  0  0  0
    1.7138    1.2033    0.0000 C   0  0  0  0  0  0  0  0  0  0  0  0
    0.2917    0.7475    0.0000 N   0  0  0  0  0  0  0  0  0  0  0  0
   -1.0028    1.5132    0.0000 N   0  0  0  0  0  0  0  0  0  0  0  0
  1  2  1  0
  2  3  1  0
  3  4  1  0
  4  5  1  0
  5  6  1  0
  6  7  2  0
  7  8  1  0
  8  9  2  0
  9 10  1  0
  9 11  1  0
 11 12  2  0
 12  6  1  0
  4 13  1  0
 13 14  1  0
 14 15  1  0
 15  2  1  0
 15 16  1  0
 16 17  1  0
 17 18  2  0
 18 19  1  0
 19 20  2  0
 20 21  1  0
 21 22  2  0
 22 23  1  0
 23 19  1  0
 23 24  1  0
 24 16  2  0
M  END
>  <chembl_id>  (67) 
CHEMBL3487480

$$$$
CHEMBL3488492
     RDKit          2D

 23 25  0  0  0  0  0  0  0  0999 V2000
    6.2297   -5.4127    0.0000 O   0  0  0  0  0  0  0  0  0  0  0  0
    5.1894   -6.0109    0.0000 C   0  0  0  0  0  0  0  0  0  0  0  0
    3.8912   -5.2578    0.0000 C   0  0  0  0  0  0  0  0  0  0  0  0
    3.8933   -3.7570    0.0000 C   0  0  0  0  0  0  0  0  0  0  0  0
    2.5951   -3.0039    0.0000 C   0  0  0  0  0  0  0  0  0  0  0  0
    2.5973   -1.5031    0.0000 O   0  0  0  0  0  0  0  0  0  0  0  0
    1.2990   -0.7500    0.0000 C   0  0  0  0  0  0  0  0  0  0  0  0
    1.2990    0.7500    0.0000 C   0  0  0  0  0  0  0  0  0  0  0  0
    0.0000    1.5000    0.0000 C   0  0  0  0  0  0  0  0  0  0  0  0
   -1.2990    0.7500    0.0000 C   0  0  0  0  0  0  0  0  0  0  0  0
   -1.2990   -0.7500    0.0000 C   0  0  0  0  0  0  0  0  0  0  0  0
    0.0000   -1.5000    0.0000 C   0  0  0  0  0  0  0  0  0  0  0  0
    5.1873   -7.5117    0.0000 N   0  0  0  0  0  0  0  0  0  0  0  0
    3.9707   -8.3673    0.0000 C   0  0  0  0  0  0  0  0  0  0  0  0
    4.4293   -9.7955    0.0000 C   0  0  0  0  0  0  0  0  0  0  0  0
    5.9293   -9.8007    0.0000 C   0  0  0  0  0  0  0  0  0  0  0  0
    6.3978   -8.3758    0.0000 C   0  0  0  0  0  0  0  0  0  0  0  0
    7.8217   -7.9098    0.0000 C   0  0  0  0  0  0  0  0  0  0  0  0
    8.9398   -8.9109    0.0000 N   0  0  0  0  0  0  0  0  0  0  0  0
   10.3905   -8.5834    0.0000 C   0  0  0  0  0  0  0  0  0  0  0  0
   11.1414   -9.8819    0.0000 C   0  0  0  0  0  0  0  0  0  0  0  0
   10.1385  -10.9973    0.0000 C   0  0  0  0  0  0  0  0  0  0  0  0
    8.7678  -10.3882    0.0000 N   0  0  0  0  0  0  0  0  0  0  0  0
  1  2  2  0
  2  3  1  0
  3  4  1  0
  4  5  1  0
  5  6  1  0
  6  7  1  0
  7  8  2  0
  8  9  1  0
  9 10  2  0
 10 11  1  0
 11 12  2  0
 12  7  1  0
  2 13  1  0
 13 14  1  0
 14 15  1  0
 15 16  1  0
 16 17  1  0
 17 13  1  0
 17 18  1  0
 18 19  1  0
 19 20  1  0
 20 21  2  0
 21 22  1  0
 22 23  2  0
 23 19  1  0
M  END
>  <chembl_id>  (68) 
CHEMBL3488492

$$$$
CHEMBL3495317
     RDKit          2D

 16 17  0  0  0  0  0  0  0  0999 V2000
    6.2100   -4.1062    0.0000 C   0  0  0  0  0  0  0  0  0  0  0  0
    5.5026   -3.1368    0.0000 S   0  0  0  0  0  0  0  0  0  0  0  0
    4.0102   -3.2959    0.0000 C   0  0  0  0  0  0  0  0  0  0  0  0
    3.1255   -2.0835    0.0000 C   0  0  0  0  0  0  0  0  0  0  0  0
    1.6332   -2.2426    0.0000 C   0  0  0  0  0  0  0  0  0  0  0  0
    0.7500   -1.0323    0.0000 N   0  0  0  0  0  0  0  0  0  0  0  0
    1.2135    0.3943    0.0000 C   0  0  0  0  0  0  0  0  0  0  0  0
    0.0000    1.2760    0.0000 C   0  0  0  0  0  0  0  0  0  0  0  0
   -1.2135    0.3943    0.0000 C   0  0  0  0  0  0  0  0  0  0  0  0
   -0.7500   -1.0323    0.0000 C   0  0  0  0  0  0  0  0  0  0  0  0
   -1.6321   -2.2464    0.0000 C   0  0  0  0  0  0  0  0  0  0  0  0
   -3.1114   -2.3441    0.0000 N   0  0  0  0  0  0  0  0  0  0  0  0
   -3.4619   -3.8026    0.0000 O   0  0  0  0  0  0  0  0  0  0  0  0
   -2.1831   -4.5866    0.0000 C   0  0  0  0  0  0  0  0  0  0  0  0
   -2.0892   -5.7830    0.0000 C   0  0  0  0  0  0  0  0  0  0  0  0
   -1.0423   -3.6127    0.0000 N   0  0  0  0  0  0  0  0  0  0  0  0
  1  2  1  0
  2  3  1  0
  3  4  1  0
  4  5  1  0
  5  6  1  0
  6  7  1  0
  7  8  1  0
  8  9  1  0
  9 10  1  0
 10  6  1  0
 10 11  1  0
 11 12  2  0
 12 13  1  0
 13 14  1  0
 14 15  1  0
 14 16  2  0
 16 11  1  0
M  END
>  <chembl_id>  (69) 
CHEMBL3495317

$$$$
CHEMBL3618486
     RDKit          2D

 21 23  0  0  0  0  0  0  0  0999 V2000
    1.2990   -0.7500    0.0000 C   0  0  0  0  0  0  0  0  0  0  0  0
    1.2990    0.7500    0.0000 C   0  0  0  0  0  0  0  0  0  0  0  0
    0.0000    1.5000    0.0000 C   0  0  0  0  0  0  0  0  0  0  0  0
   -1.2990    0.7500    0.0000 C   0  0  0  0  0  0  0  0  0  0  0  0
   -1.2990   -0.7500    0.0000 C   0  0  0  0  0  0  0  0  0  0  0  0
    0.0000   -1.5000    0.0000 C   0  0  0  0  0  0  0  0  0  0  0  0
   -2.5972   -1.5031    0.0000 N   0  0  0  0  0  0  0  0  0  0  0  0
   -2.5951   -3.0039    0.0000 C   0  0  0  0  0  0  0  0  0  0  0  0
   -3.8056   -3.8680    0.0000 S   0  0  0  0  0  0  0  0  0  0  0  0
   -3.3371   -5.2929    0.0000 C   0  0  0  0  0  0  0  0  0  0  0  0
   -1.8371   -5.2877    0.0000 C   0  0  0  0  0  0  0  0  0  0  0  0
   -1.3786   -3.8595    0.0000 N   0  0  0  0  0  0  0  0  0  0  0  0
   -0.9508   -6.4988    0.0000 C   0  0  0  0  0  0  0  0  0  0  0  0
    0.5248   -6.2201    0.0000 C   0  0  0  0  0  0  0  0  0  0  0  0
    1.4993   -7.3604    0.0000 C   0  0  0  0  0  0  0  0  0  0  0  0
    0.9989   -8.7745    0.0000 C   0  0  0  0  0  0  0  0  0  0  0  0
   -0.4759   -9.0482    0.0000 C   0  0  0  0  0  0  0  0  0  0  0  0
   -1.4503   -7.9079    0.0000 C   0  0  0  0  0  0  0  0  0  0  0  0
   -2.6303   -8.1265    0.0000 Cl  0  0  0  0  0  0  0  0  0  0  0  0
    1.7785   -9.6868    0.0000 Cl  0  0  0  0  0  0  0  0  0  0  0  0
    2.3383    1.3500    0.0000 N   0  0  0  0  0  0  0  0  0  0  0  0
  1  2  2  0
  2  3  1  0
  3  4  2  0
  4  5  1  0
  5  6  2  0
  6  1  1  0
  5  7  1  0
  7  8  1  0
  8  9  1  0
  9 10  1  0
 10 11  2  0
 11 12  1  0
 12  8  2  0
 11 13  1  0
 13 14  2  0
 14 15  1  0
 15 16  2  0
 16 17  1  0
 17 18  2  0
 18 13  1  0
 18 19  1  0
 16 20  1  0
  2 21  1  0
M  END
>  <chembl_id>  (70) 
CHEMBL3618486

$$$$
CHEMBL3647280
     RDKit          2D

 35 39  0  0  0  0  0  0  0  0999 V2000
    3.7497   -4.4245    0.0000 O   0  0  0  0  0  0  0  0  0  0  0  0
    2.5497   -4.4224    0.0000 C   0  0  0  0  0  0  0  0  0  0  0  0
    1.7974   -5.7210    0.0000 N   0  0  0  0  0  0  0  0  0  0  0  0
    2.5451   -7.0223    0.0000 C   0  0  0  0  0  0  0  0  0  0  0  0
    1.7928   -8.3210    0.0000 C   0  0  0  0  0  0  0  0  0  0  0  0
    2.5382   -9.6227    0.0000 C   0  0  0  0  0  0  0  0  0  0  0  0
    1.7837  -10.9191    0.0000 C   0  0  0  0  0  0  0  0  0  0  0  0
    0.2837  -10.9139    0.0000 C   0  0  0  0  0  0  0  0  0  0  0  0
   -0.4618   -9.6123    0.0000 C   0  0  0  0  0  0  0  0  0  0  0  0
    0.2927   -8.3159    0.0000 C   0  0  0  0  0  0  0  0  0  0  0  0
   -1.9626   -9.6071    0.0000 C   0  0  0  0  0  0  0  0  0  0  0  0
   -3.1626   -9.6029    0.0000 N   0  0  0  0  0  0  0  0  0  0  0  0
    1.8032   -3.1233    0.0000 C   0  0  0  0  0  0  0  0  0  0  0  0
    2.4133   -1.7530    0.0000 O   0  0  0  0  0  0  0  0  0  0  0  0
    1.2990   -0.7500    0.0000 C   0  0  0  0  0  0  0  0  0  0  0  0
    1.2990    0.7500    0.0000 C   0  0  0  0  0  0  0  0  0  0  0  0
    0.0000    1.5000    0.0000 C   0  0  0  0  0  0  0  0  0  0  0  0
   -1.2990    0.7500    0.0000 C   0  0  0  0  0  0  0  0  0  0  0  0
   -1.2990   -0.7500    0.0000 C   0  0  0  0  0  0  0  0  0  0  0  0
    0.0000   -1.5000    0.0000 C   0  0  0  0  0  0  0  0  0  0  0  0
    0.3114   -2.9665    0.0000 C   0  0  0  0  0  0  0  0  0  0  0  0
    2.5987    1.5004    0.0000 N   0  0  0  0  0  0  0  0  0  0  0  0
    3.8991    0.7525    0.0000 C   0  0  0  0  0  0  0  0  0  0  0  0
    5.1969    1.5046    0.0000 C   0  0  0  0  0  0  0  0  0  0  0  0
    5.1945    3.0046    0.0000 N   0  0  0  0  0  0  0  0  0  0  0  0
    6.4915    3.7597    0.0000 C   0  0  0  0  0  0  0  0  0  0  0  0
    6.4870    5.2606    0.0000 C   0  0  0  0  0  0  0  0  0  0  0  0
    7.7840    6.0157    0.0000 C   0  0  0  0  0  0  0  0  0  0  0  0
    7.7817    7.5157    0.0000 C   0  0  0  0  0  0  0  0  0  0  0  0
    9.0795    8.2678    0.0000 C   0  0  0  0  0  0  0  0  0  0  0  0
   10.3797    7.5199    0.0000 C   0  0  0  0  0  0  0  0  0  0  0  0
   10.3822    6.0199    0.0000 C   0  0  0  0  0  0  0  0  0  0  0  0
    9.0843    5.2678    0.0000 N   0  0  0  0  0  0  0  0  0  0  0  0
    3.8943    3.7525    0.0000 C   0  0  0  0  0  0  0  0  0  0  0  0
    2.5964    3.0004    0.0000 C   0  0  0  0  0  0  0  0  0  0  0  0
  1  2  2  0
  2  3  1  0
  3  4  1  0
  4  5  1  0
  5  6  2  0
  6  7  1  0
  7  8  2  0
  8  9  1  0
  9 10  2  0
 10  5  1  0
  9 11  1  0
 11 12  3  0
  2 13  1  0
 13 14  1  0
 14 15  1  0
 15 16  2  0
 16 17  1  0
 17 18  2  0
 18 19  1  0
 19 20  2  0
 20 15  1  0
 20 21  1  0
 21 13  2  0
 16 22  1  0
 22 23  1  0
 23 24  1  0
 24 25  1  0
 25 26  1  0
 26 27  1  0
 27 28  1  0
 28 29  2  0
 29 30  1  0
 30 31  2  0
 31 32  1  0
 32 33  2  0
 33 28  1  0
 25 34  1  0
 34 35  1  0
 35 22  1  0
M  END
>  <chembl_id>  (71) 
CHEMBL3647280

$$$$
CHEMBL3685328
     RDKit          2D

 27 29  0  0  1  0  0  0  0  0999 V2000
    2.5866    2.7016    0.0000 C   0  0  0  0  0  0  0  0  0  0  0  0
    2.5912    1.5016    0.0000 N   0  0  0  0  0  0  0  0  0  0  0  0
    3.8933    0.7554    0.0000 C   0  0  0  0  0  0  0  0  0  0  0  0
    3.8990   -0.7455    0.0000 C   0  0  0  0  0  0  0  0  0  0  0  0
    2.6003   -1.4977    0.0000 N   0  0  0  0  0  0  0  0  0  0  0  0
    1.2990   -0.7500    0.0000 C   0  0  0  0  0  0  0  0  0  0  0  0
    1.2990    0.7500    0.0000 N   0  0  0  0  0  0  0  0  0  0  0  0
    0.0000    1.5000    0.0000 C   0  0  0  0  0  0  0  0  0  0  0  0
   -1.2990    0.7500    0.0000 N   0  0  0  0  0  0  0  0  0  0  0  0
   -1.2990   -0.7500    0.0000 C   0  0  0  0  0  0  0  0  0  0  0  0
   -2.5981   -1.5000    0.0000 C   0  0  0  0  0  0  0  0  0  0  0  0
   -2.5981   -3.0000    0.0000 C   0  0  0  0  0  0  0  0  0  0  0  0
   -1.2990   -3.7500    0.0000 C   0  0  0  0  0  0  0  0  0  0  0  0
   -1.2959   -5.2508    0.0000 O   0  0  0  0  0  0  0  0  0  0  0  0
   -0.2558   -5.8494    0.0000 C   0  0  0  0  0  0  0  0  0  0  0  0
    0.0000   -3.0000    0.0000 C   0  0  0  0  0  0  0  0  0  0  0  0
    0.0000   -1.5000    0.0000 C   0  0  0  0  0  0  0  0  0  0  0  0
   -3.8994   -0.7523    0.0000 C   0  0  0  0  0  0  0  0  0  0  0  0
   -4.9378   -1.3538    0.0000 O   0  0  0  0  0  0  0  0  0  0  0  0
   -3.9015    0.4477    0.0000 N   0  0  0  0  0  0  0  0  0  0  0  0
    5.2003   -1.4932    0.0000 C   0  0  0  0  0  0  0  0  0  0  0  0
    6.4994   -0.7432    0.0000 C   0  0  0  0  0  0  0  0  0  0  0  0
    7.7985   -1.4932    0.0000 C   0  0  0  0  0  0  0  0  0  0  0  0
    7.7985   -2.9932    0.0000 C   0  0  0  0  0  0  0  0  0  0  0  0
    6.4995   -3.7432    0.0000 C   0  0  0  0  0  0  0  0  0  0  0  0
    6.4995   -4.9432    0.0000 Cl  0  0  0  0  0  0  0  0  0  0  0  0
    5.2004   -2.9933    0.0000 C   0  0  0  0  0  0  0  0  0  0  0  0
  1  2  1  0
  2  3  1  0
  4  3  1  6
  4  5  1  0
  5  6  1  0
  6  7  2  0
  7  8  1  0
  8  9  2  0
  9 10  1  0
 10 11  2  0
 11 12  1  0
 12 13  2  0
 13 14  1  0
 14 15  1  0
 13 16  1  0
 16 17  2  0
 17  6  1  0
 17 10  1  0
 11 18  1  0
 18 19  2  0
 18 20  1  0
  4 21  1  0
 21 22  2  0
 22 23  1  0
 23 24  2  0
 24 25  1  0
 25 26  1  0
 25 27  2  0
 27 21  1  0
M  END
>  <chembl_id>  (72) 
CHEMBL3685328

$$$$
CHEMBL3690892
     RDKit          2D

 36 39  0  0  1  0  0  0  0  0999 V2000
    4.9336   -3.1588    0.0000 C   0  0  0  0  0  0  0  0  0  0  0  0
    3.8933   -3.7570    0.0000 C   0  0  0  0  0  0  0  0  0  0  0  0
    2.5951   -3.0039    0.0000 O   0  0  0  0  0  0  0  0  0  0  0  0
    2.5973   -1.5031    0.0000 C   0  0  0  0  0  0  0  0  0  0  0  0
    1.2990   -0.7500    0.0000 C   0  0  0  0  0  0  0  0  0  0  0  0
    1.2990    0.7500    0.0000 C   0  0  0  0  0  0  0  0  0  0  0  0
    0.0000    1.5000    0.0000 C   0  0  0  0  0  0  0  0  0  0  0  0
    0.0000    2.7000    0.0000 F   0  0  0  0  0  0  0  0  0  0  0  0
   -1.2990    0.7500    0.0000 C   0  0  0  0  0  0  0  0  0  0  0  0
   -1.2990   -0.7500    0.0000 C   0  0  0  0  0  0  0  0  0  0  0  0
    0.0000   -1.5000    0.0000 C   0  0  0  0  0  0  0  0  0  0  0  0
   -2.5987   -1.5004    0.0000 C   0  0  0  0  0  0  0  0  0  0  0  0
   -2.7343   -2.9815    0.0000 C   0  0  0  0  0  0  0  0  0  0  0  0
   -4.2010   -3.2957    0.0000 C   0  0  0  0  0  0  0  0  0  0  0  0
   -4.8110   -4.6641    0.0000 N   0  0  0  0  0  0  0  0  0  0  0  0
   -6.3036   -4.8212    0.0000 C   0  0  0  0  0  0  0  0  0  0  0  0
   -7.0088   -3.8502    0.0000 O   0  0  0  0  0  0  0  0  0  0  0  0
   -6.9147   -6.1920    0.0000 C   0  0  0  0  0  0  0  0  0  0  0  0
   -8.3726   -6.4861    0.0000 C   0  0  0  0  0  0  0  0  0  0  0  0
   -8.5271   -7.9782    0.0000 N   0  0  0  0  0  0  0  0  0  0  0  0
   -7.1558   -8.5861    0.0000 C   0  0  0  0  0  0  0  0  0  0  0  0
   -6.9045   -9.7595    0.0000 O   0  0  0  0  0  0  0  0  0  0  0  0
   -6.1538   -7.4699    0.0000 C   0  0  0  0  0  0  0  0  0  0  0  0
   -4.9530   -1.9978    0.0000 N   0  0  0  0  0  0  0  0  0  0  0  0
   -3.9511   -0.8815    0.0000 N   0  0  0  0  0  0  0  0  0  0  0  0
   -4.2568    0.5878    0.0000 C   0  0  0  0  0  0  0  0  0  0  0  0
   -3.2235    1.6679    0.0000 C   0  0  0  0  0  0  0  0  0  0  0  0
   -3.6446    3.1076    0.0000 C   0  0  0  0  0  0  0  0  0  0  0  0
   -5.1020    3.4627    0.0000 C   0  0  0  0  0  0  0  0  0  0  0  0
   -5.4389    4.6144    0.0000 Cl  0  0  0  0  0  0  0  0  0  0  0  0
   -6.1382    2.3782    0.0000 C   0  0  0  0  0  0  0  0  0  0  0  0
   -5.7171    0.9385    0.0000 C   0  0  0  0  0  0  0  0  0  0  0  0
    3.8912   -5.2578    0.0000 C   0  0  0  0  0  0  0  0  0  0  0  0
    4.9292   -5.8600    0.0000 F   0  0  0  0  0  0  0  0  0  0  0  0
    3.8889   -6.4578    0.0000 F   0  0  0  0  0  0  0  0  0  0  0  0
    2.8509   -5.8560    0.0000 F   0  0  0  0  0  0  0  0  0  0  0  0
  2  1  1  6
  2  3  1  0
  3  4  1  0
  4  5  1  0
  5  6  2  0
  6  7  1  0
  7  8  1  0
  7  9  2  0
  9 10  1  0
 10 11  2  0
 11  5  1  0
 10 12  1  0
 12 13  2  0
 13 14  1  0
 14 15  1  0
 15 16  1  0
 16 17  2  0
 18 16  1  1
 18 19  1  0
 19 20  1  0
 20 21  1  0
 21 22  2  0
 21 23  1  0
 23 18  1  0
 14 24  2  0
 24 25  1  0
 25 12  1  0
 25 26  1  0
 26 27  2  0
 27 28  1  0
 28 29  2  0
 29 30  1  0
 29 31  1  0
 31 32  2  0
 32 26  1  0
  2 33  1  0
 33 34  1  0
 33 35  1  0
 33 36  1  0
M  END
>  <chembl_id>  (73) 
CHEMBL3690892

$$$$
CHEMBL3901650
     RDKit          2D

 28 31  0  0  0  0  0  0  0  0999 V2000
    9.1519  -15.8524    0.0000 Cl  0  0  0  0  0  0  0  0  0  0  0  0
    8.5519  -14.8131    0.0000 C   0  0  0  0  0  0  0  0  0  0  0  0
    9.3019  -13.5141    0.0000 C   0  0  0  0  0  0  0  0  0  0  0  0
    8.5520  -12.2151    0.0000 C   0  0  0  0  0  0  0  0  0  0  0  0
    7.0519  -12.2150    0.0000 C   0  0  0  0  0  0  0  0  0  0  0  0
    6.2989  -10.9167    0.0000 N   0  0  0  0  0  0  0  0  0  0  0  0
    4.7981  -10.9188    0.0000 C   0  0  0  0  0  0  0  0  0  0  0  0
    4.1999  -11.9590    0.0000 O   0  0  0  0  0  0  0  0  0  0  0  0
    4.0450   -9.6205    0.0000 C   0  0  0  0  0  0  0  0  0  0  0  0
    2.5450   -9.6205    0.0000 C   0  0  0  0  0  0  0  0  0  0  0  0
    1.7951   -8.3214    0.0000 C   0  0  0  0  0  0  0  0  0  0  0  0
    2.5451   -7.0223    0.0000 C   0  0  0  0  0  0  0  0  0  0  0  0
    1.7974   -5.7210    0.0000 N   0  0  0  0  0  0  0  0  0  0  0  0
    2.5497   -4.4224    0.0000 C   0  0  0  0  0  0  0  0  0  0  0  0
    3.7497   -4.4245    0.0000 O   0  0  0  0  0  0  0  0  0  0  0  0
    1.8032   -3.1233    0.0000 N   0  0  0  0  0  0  0  0  0  0  0  0
    2.4133   -1.7530    0.0000 C   0  0  0  0  0  0  0  0  0  0  0  0
    1.2990   -0.7500    0.0000 C   0  0  0  0  0  0  0  0  0  0  0  0
    1.2990    0.7500    0.0000 C   0  0  0  0  0  0  0  0  0  0  0  0
    0.0000    1.5000    0.0000 C   0  0  0  0  0  0  0  0  0  0  0  0
   -1.2990    0.7500    0.0000 C   0  0  0  0  0  0  0  0  0  0  0  0
   -1.2990   -0.7500    0.0000 C   0  0  0  0  0  0  0  0  0  0  0  0
    0.0000   -1.5000    0.0000 C   0  0  0  0  0  0  0  0  0  0  0  0
    0.3114   -2.9665    0.0000 C   0  0  0  0  0  0  0  0  0  0  0  0
    4.0452   -7.0225    0.0000 C   0  0  0  0  0  0  0  0  0  0  0  0
    4.7951   -8.3215    0.0000 C   0  0  0  0  0  0  0  0  0  0  0  0
    6.3019  -13.5141    0.0000 N   0  0  0  0  0  0  0  0  0  0  0  0
    7.0519  -14.8131    0.0000 C   0  0  0  0  0  0  0  0  0  0  0  0
  1  2  1  0
  2  3  2  0
  3  4  1  0
  4  5  2  0
  5  6  1  0
  6  7  1  0
  7  8  2  0
  7  9  1  0
  9 10  2  0
 10 11  1  0
 11 12  2  0
 12 13  1  0
 13 14  1  0
 14 15  2  0
 14 16  1  0
 16 17  1  0
 17 18  1  0
 18 19  2  0
 19 20  1  0
 20 21  2  0
 21 22  1  0
 22 23  2  0
 23 18  1  0
 23 24  1  0
 24 16  1  0
 12 25  1  0
 25 26  2  0
 26  9  1  0
  5 27  1  0
 27 28  2  0
 28  2  1  0
M  END
>  <chembl_id>  (74) 
CHEMBL3901650

$$$$
CHEMBL3941716
     RDKit          2D

 27 29  0  0  0  0  0  0  0  0999 V2000
    2.3383   -1.3500    0.0000 F   0  0  0  0  0  0  0  0  0  0  0  0
    1.2990   -0.7500    0.0000 C   0  0  0  0  0  0  0  0  0  0  0  0
    1.2990    0.7500    0.0000 C   0  0  0  0  0  0  0  0  0  0  0  0
    0.0000    1.5000    0.0000 C   0  0  0  0  0  0  0  0  0  0  0  0
   -1.2990    0.7500    0.0000 C   0  0  0  0  0  0  0  0  0  0  0  0
   -1.2990   -0.7500    0.0000 C   0  0  0  0  0  0  0  0  0  0  0  0
   -2.3383   -1.3500    0.0000 Cl  0  0  0  0  0  0  0  0  0  0  0  0
    0.0000   -1.5000    0.0000 C   0  0  0  0  0  0  0  0  0  0  0  0
    0.0000   -3.0008    0.0000 C   0  0  0  0  0  0  0  0  0  0  0  0
    1.3002   -3.7488    0.0000 C   0  0  0  0  0  0  0  0  0  0  0  0
    1.3026   -5.2488    0.0000 C   0  0  0  0  0  0  0  0  0  0  0  0
    0.0048   -6.0009    0.0000 C   0  0  0  0  0  0  0  0  0  0  0  0
   -1.2955   -5.2529    0.0000 C   0  0  0  0  0  0  0  0  0  0  0  0
   -2.3337   -5.8546    0.0000 O   0  0  0  0  0  0  0  0  0  0  0  0
   -1.2978   -3.7529    0.0000 N   0  0  0  0  0  0  0  0  0  0  0  0
   -2.5973   -3.0020    0.0000 C   0  0  0  0  0  0  0  0  0  0  0  0
   -2.5976   -1.5011    0.0000 C   0  0  0  0  0  0  0  0  0  0  0  0
   -3.8952   -0.7487    0.0000 C   0  0  0  0  0  0  0  0  0  0  0  0
   -3.8925    0.7513    0.0000 C   0  0  0  0  0  0  0  0  0  0  0  0
   -2.5921    1.4990    0.0000 C   0  0  0  0  0  0  0  0  0  0  0  0
   -2.5863    2.9998    0.0000 O   0  0  0  0  0  0  0  0  0  0  0  0
   -1.2841    3.7460    0.0000 C   0  0  0  0  0  0  0  0  0  0  0  0
   -1.2794    4.9460    0.0000 F   0  0  0  0  0  0  0  0  0  0  0  0
   -0.2470    3.1423    0.0000 F   0  0  0  0  0  0  0  0  0  0  0  0
   -0.2426    4.3421    0.0000 F   0  0  0  0  0  0  0  0  0  0  0  0
   -1.2944    0.7466    0.0000 C   0  0  0  0  0  0  0  0  0  0  0  0
   -1.2972   -0.7534    0.0000 C   0  0  0  0  0  0  0  0  0  0  0  0
  1  2  1  0
  2  3  2  0
  3  4  1  0
  4  5  2  0
  5  6  1  0
  6  7  1  0
  6  8  2  0
  8  2  1  0
  8  9  1  0
  9 10  1  0
 10 11  1  0
 11 12  1  0
 12 13  1  0
 13 14  2  0
 13 15  1  0
 15  9  1  0
 15 16  1  0
 16 17  1  0
 17 18  2  0
 18 19  1  0
 19 20  2  0
 20 21  1  0
 21 22  1  0
 22 23  1  0
 22 24  1  0
 22 25  1  0
 20 26  1  0
 26 27  2  0
 27 17  1  0
M  END
>  <chembl_id>  (75) 
CHEMBL3941716

$$$$
CHEMBL3942761
     RDKit          2D

 32 36  0  0  0  0  0  0  0  0999 V2000
   -0.5893   -9.0573    0.0000 C   0  0  0  0  0  0  0  0  0  0  0  0
   -0.2222   -7.9149    0.0000 N   0  0  0  0  0  0  0  0  0  0  0  0
    1.2028   -7.4466    0.0000 C   0  0  0  0  0  0  0  0  0  0  0  0
    2.1760   -8.1488    0.0000 O   0  0  0  0  0  0  0  0  0  0  0  0
    1.1979   -5.9466    0.0000 N   0  0  0  0  0  0  0  0  0  0  0  0
   -0.2234   -5.5086    0.0000 C   0  0  0  0  0  0  0  0  0  0  0  0
   -0.6890   -4.0818    0.0000 C   0  0  0  0  0  0  0  0  0  0  0  0
    0.3114   -2.9665    0.0000 C   0  0  0  0  0  0  0  0  0  0  0  0
    1.8032   -3.1233    0.0000 C   0  0  0  0  0  0  0  0  0  0  0  0
    2.4133   -1.7530    0.0000 N   0  0  0  0  0  0  0  0  0  0  0  0
    1.2990   -0.7500    0.0000 N   0  0  0  0  0  0  0  0  0  0  0  0
    1.2990    0.7500    0.0000 C   0  0  0  0  0  0  0  0  0  0  0  0
    2.5972    1.5031    0.0000 N   0  0  0  0  0  0  0  0  0  0  0  0
    2.5951    3.0039    0.0000 C   0  0  0  0  0  0  0  0  0  0  0  0
    3.3408    4.2142    0.0000 C   0  0  0  0  0  0  0  0  0  0  0  0
    1.8408    4.2089    0.0000 C   0  0  0  0  0  0  0  0  0  0  0  0
    0.0000    1.5000    0.0000 C   0  0  0  0  0  0  0  0  0  0  0  0
   -1.2990    0.7500    0.0000 C   0  0  0  0  0  0  0  0  0  0  0  0
   -2.6003    1.4977    0.0000 N   0  0  0  0  0  0  0  0  0  0  0  0
   -3.8990    0.7455    0.0000 C   0  0  0  0  0  0  0  0  0  0  0  0
   -5.2007    1.4909    0.0000 C   0  0  0  0  0  0  0  0  0  0  0  0
   -6.4972    0.7364    0.0000 C   0  0  0  0  0  0  0  0  0  0  0  0
   -6.4920   -0.7636    0.0000 C   0  0  0  0  0  0  0  0  0  0  0  0
   -7.7891   -1.5185    0.0000 C   0  0  0  0  0  0  0  0  0  0  0  0
   -8.8263   -2.1221    0.0000 N   0  0  0  0  0  0  0  0  0  0  0  0
   -5.1903   -1.5091    0.0000 C   0  0  0  0  0  0  0  0  0  0  0  0
   -5.1862   -2.7091    0.0000 Cl  0  0  0  0  0  0  0  0  0  0  0  0
   -3.8939   -0.7546    0.0000 C   0  0  0  0  0  0  0  0  0  0  0  0
   -1.2990   -0.7500    0.0000 N   0  0  0  0  0  0  0  0  0  0  0  0
    0.0000   -1.5000    0.0000 C   0  0  0  0  0  0  0  0  0  0  0  0
   -1.1079   -6.7042    0.0000 C   0  0  0  0  0  0  0  0  0  0  0  0
   -2.3079   -6.7011    0.0000 O   0  0  0  0  0  0  0  0  0  0  0  0
  1  2  1  0
  2  3  1  0
  3  4  2  0
  3  5  1  0
  5  6  1  0
  6  7  2  0
  7  8  1  0
  8  9  1  0
  9 10  2  0
 10 11  1  0
 11 12  1  0
 12 13  1  0
 13 14  1  0
 14 15  1  0
 15 16  1  0
 16 14  1  0
 12 17  2  0
 17 18  1  0
 18 19  1  0
 19 20  1  0
 20 21  2  0
 21 22  1  0
 22 23  2  0
 23 24  1  0
 24 25  3  0
 23 26  1  0
 26 27  1  0
 26 28  2  0
 28 20  1  0
 18 29  2  0
 29 30  1  0
 30  8  2  0
 30 11  1  0
  6 31  1  0
 31  2  1  0
 31 32  2  0
M  END
>  <chembl_id>  (76) 
CHEMBL3942761

$$$$
CHEMBL4073602
     RDKit          2D

 28 31  0  0  0  0  0  0  0  0999 V2000
   30.6282  -19.2370    0.0000 C   0  0  0  0  0  0  0  0  0  0  0  0
   30.6282  -20.0542    0.0000 N   0  0  0  0  0  0  0  0  0  0  0  0
   31.3334  -20.4587    0.0000 C   0  0  0  0  0  0  0  0  0  0  0  0
   32.0387  -20.0542    0.0000 C   0  0  0  0  0  0  0  0  0  0  0  0
   32.0387  -19.2370    0.0000 C   0  0  0  0  0  0  0  0  0  0  0  0
   31.3334  -18.8243    0.0000 C   0  0  0  0  0  0  0  0  0  0  0  0
   32.7476  -18.8305    0.0000 C   0  0  0  0  0  0  0  0  0  0  0  0
   33.4541  -19.2412    0.0000 C   0  0  0  0  0  0  0  0  0  0  0  0
   33.4502  -20.0594    0.0000 C   0  0  0  0  0  0  0  0  0  0  0  0
   34.1558  -20.4700    0.0000 C   0  0  0  0  0  0  0  0  0  0  0  0
   34.8657  -20.0634    0.0000 C   0  0  0  0  0  0  0  0  0  0  0  0
   34.8655  -19.2420    0.0000 C   0  0  0  0  0  0  0  0  0  0  0  0
   34.1592  -18.8351    0.0000 C   0  0  0  0  0  0  0  0  0  0  0  0
   29.9210  -20.4638    0.0000 C   0  0  0  0  0  0  0  0  0  0  0  0
   29.2127  -20.0563    0.0000 C   0  0  0  0  0  0  0  0  0  0  0  0
   28.5056  -20.4659    0.0000 C   0  0  0  0  0  0  0  0  0  0  0  0
   27.7973  -20.0583    0.0000 N   0  0  0  0  0  0  0  0  0  0  0  0
   27.7063  -19.2467    0.0000 N   0  0  0  0  0  0  0  0  0  0  0  0
   26.9067  -19.0780    0.0000 N   0  0  0  0  0  0  0  0  0  0  0  0
   26.4991  -19.7863    0.0000 N   0  0  0  0  0  0  0  0  0  0  0  0
   27.0469  -20.3927    0.0000 C   0  0  0  0  0  0  0  0  0  0  0  0
   26.8799  -21.1888    0.0000 C   0  0  0  0  0  0  0  0  0  0  0  0
   26.1014  -21.4411    0.0000 C   0  0  0  0  0  0  0  0  0  0  0  0
   25.9321  -22.2398    0.0000 C   0  0  0  0  0  0  0  0  0  0  0  0
   26.5403  -22.7869    0.0000 C   0  0  0  0  0  0  0  0  0  0  0  0
   27.3205  -22.5298    0.0000 C   0  0  0  0  0  0  0  0  0  0  0  0
   27.4861  -21.7317    0.0000 C   0  0  0  0  0  0  0  0  0  0  0  0
   26.3722  -23.5866    0.0000 Cl  0  0  0  0  0  0  0  0  0  0  0  0
  1  2  1  0
  1  6  1  0
  2  3  1  0
  3  4  1  0
  4  5  1  0
  5  6  1  0
  5  7  1  0
  7  8  1  0
  8  9  2  0
  9 10  1  0
 10 11  2  0
 11 12  1  0
 12 13  2  0
 13  8  1  0
  2 14  1  0
 14 15  1  0
 15 16  1  0
 16 17  1  0
 17 18  1  0
 18 19  2  0
 19 20  1  0
 20 21  2  0
 21 17  1  0
 22 23  2  0
 23 24  1  0
 24 25  2  0
 25 26  1  0
 26 27  2  0
 27 22  1  0
 21 22  1  0
 25 28  1  0
M  END
>  <chembl_id>  (77) 
CHEMBL4073602

$$$$
CHEMBL4083366
     RDKit          2D

 29 32  0  0  0  0  0  0  0  0999 V2000
    4.7504   -5.8111    0.0000 O   0  0  0  0  0  0  0  0  0  0  0  0
    4.3460   -5.1054    0.0000 S   0  0  0  0  0  0  0  0  0  0  0  0
    3.9370   -5.8085    0.0000 O   0  0  0  0  0  0  0  0  0  0  0  0
    5.0559   -3.8796    0.0000 C   0  0  0  0  0  0  0  0  0  0  0  0
    5.0559   -4.6968    0.0000 N   0  0  0  0  0  0  0  0  0  0  0  0
    5.7611   -5.1013    0.0000 C   0  0  0  0  0  0  0  0  0  0  0  0
    6.4664   -4.6968    0.0000 C   0  0  0  0  0  0  0  0  0  0  0  0
    6.4664   -3.8796    0.0000 N   0  0  0  0  0  0  0  0  0  0  0  0
    5.7611   -3.4669    0.0000 C   0  0  0  0  0  0  0  0  0  0  0  0
    7.1753   -3.4731    0.0000 C   0  0  0  0  0  0  0  0  0  0  0  0
    7.8785   -3.8875    0.0000 N   0  0  0  0  0  0  0  0  0  0  0  0
    8.5869   -3.4817    0.0000 N   0  0  0  0  0  0  0  0  0  0  0  0
    8.5897   -2.6636    0.0000 C   0  0  0  0  0  0  0  0  0  0  0  0
    7.8782   -2.2531    0.0000 C   0  0  0  0  0  0  0  0  0  0  0  0
    7.1727   -2.6613    0.0000 C   0  0  0  0  0  0  0  0  0  0  0  0
    9.2981   -2.2561    0.0000 N   0  0  0  0  0  0  0  0  0  0  0  0
    3.6404   -4.6988    0.0000 C   0  0  0  0  0  0  0  0  0  0  0  0
    9.2430   -1.4473    0.0000 C   0  0  0  0  0  0  0  0  0  0  0  0
    9.8431   -0.8898    0.0000 C   0  0  0  0  0  0  0  0  0  0  0  0
    9.9781   -2.7203    0.0000 C   0  0  0  0  0  0  0  0  0  0  0  0
   10.6504   -1.0079    0.0000 C   0  0  0  0  0  0  0  0  0  0  0  0
   10.7601   -2.4784    0.0000 C   0  0  0  0  0  0  0  0  0  0  0  0
   11.0564   -1.7158    0.0000 C   0  0  0  0  0  0  0  0  0  0  0  0
    3.5565   -3.8846    0.0000 C   0  0  0  0  0  0  0  0  0  0  0  0
    2.7598   -3.7160    0.0000 O   0  0  0  0  0  0  0  0  0  0  0  0
    2.3532   -4.4216    0.0000 N   0  0  0  0  0  0  0  0  0  0  0  0
    2.8987   -5.0262    0.0000 C   0  0  0  0  0  0  0  0  0  0  0  0
    2.7279   -5.8253    0.0000 C   0  0  0  0  0  0  0  0  0  0  0  0
    4.1640   -3.3382    0.0000 C   0  0  0  0  0  0  0  0  0  0  0  0
  2  1  2  0
  3  2  2  0
  4  5  1  0
  4  9  1  0
  5  6  1  0
  6  7  1  0
  7  8  1  0
  8  9  1  0
  8 10  1  0
 10 11  2  0
 11 12  1  0
 12 13  2  0
 13 14  1  0
 14 15  2  0
 15 10  1  0
 13 16  1  0
  5  2  1  0
  2 17  1  0
 16 18  1  0
 18 19  1  0
 16 20  1  0
 19 21  1  0
 20 22  1  0
 21 23  1  0
 22 23  1  0
 17 24  2  0
 24 25  1  0
 25 26  1  0
 26 27  2  0
 27 17  1  0
 27 28  1  0
 24 29  1  0
M  END
>  <chembl_id>  (78) 
CHEMBL4083366

$$$$
CHEMBL4130212
     RDKit          2D

 24 26  0  0  0  0  0  0  0  0999 V2000
   42.6317  -10.8670    0.0000 N   0  0  0  0  0  0  0  0  0  0  0  0
   43.4252  -11.0782    0.0000 C   0  0  0  0  0  0  0  0  0  0  0  0
   43.8758  -10.3936    0.0000 C   0  0  0  0  0  0  0  0  0  0  0  0
   43.3558   -9.7524    0.0000 N   0  0  0  0  0  0  0  0  0  0  0  0
   42.5907  -10.0479    0.0000 C   0  0  0  0  0  0  0  0  0  0  0  0
   38.3222  -12.3741    0.0000 C   0  0  0  0  0  0  0  0  0  0  0  0
   39.0965  -12.1009    0.0000 N   0  0  0  0  0  0  0  0  0  0  0  0
   39.0766  -11.2797    0.0000 C   0  0  0  0  0  0  0  0  0  0  0  0
   38.2865  -11.0428    0.0000 C   0  0  0  0  0  0  0  0  0  0  0  0
   37.8268  -11.7215    0.0000 N   0  0  0  0  0  0  0  0  0  0  0  0
   39.7884  -10.8670    0.0000 C   0  0  0  0  0  0  0  0  0  0  0  0
   40.5003  -11.2797    0.0000 C   0  0  0  0  0  0  0  0  0  0  0  0
   41.2121  -10.8670    0.0000 C   0  0  0  0  0  0  0  0  0  0  0  0
   41.9239  -11.2797    0.0000 C   0  0  0  0  0  0  0  0  0  0  0  0
   41.9050   -9.6034    0.0000 N   0  0  0  0  0  0  0  0  0  0  0  0
   38.0895  -13.1616    0.0000 N   0  0  0  0  0  0  0  0  0  0  0  0
   39.8030  -12.5055    0.0000 C   0  0  0  0  0  0  0  0  0  0  0  0
   40.5144  -12.0962    0.0000 C   0  0  0  0  0  0  0  0  0  0  0  0
   41.2267  -12.5041    0.0000 C   0  0  0  0  0  0  0  0  0  0  0  0
   41.2249  -13.3238    0.0000 C   0  0  0  0  0  0  0  0  0  0  0  0
   41.9363  -13.7357    0.0000 C   0  0  0  0  0  0  0  0  0  0  0  0
   42.6446  -13.3223    0.0000 C   0  0  0  0  0  0  0  0  0  0  0  0
   42.6412  -12.4967    0.0000 C   0  0  0  0  0  0  0  0  0  0  0  0
   41.9333  -12.0926    0.0000 C   0  0  0  0  0  0  0  0  0  0  0  0
  1  2  1  0
  2  3  1  0
  3  4  1  0
  4  5  1  0
  5  1  1  0
  6  7  1  0
  7  8  1  0
  8  9  1  0
  9 10  1  0
 10  6  1  0
  8 11  1  6
 11 12  1  0
 12 13  1  0
 13 14  1  0
 14  1  1  0
  5 15  2  0
  6 16  2  0
  7 17  1  0
 17 18  1  0
 18 19  1  0
 19 20  2  0
 20 21  1  0
 21 22  2  0
 22 23  1  0
 23 24  2  0
 24 19  1  0
M  END
>  <chembl_id>  (79) 
CHEMBL4130212

$$$$
CHEMBL4206135
     RDKit          2D

 31 34  0  0  0  0  0  0  0  0999 V2000
   33.9341   -3.5123    0.0000 O   0  0  0  0  0  0  0  0  0  0  0  0
   34.3468   -4.2263    0.0000 S   0  0  0  0  0  0  0  0  0  0  0  0
   34.7593   -3.5098    0.0000 O   0  0  0  0  0  0  0  0  0  0  0  0
   27.9470   -5.4668    0.0000 C   0  0  0  0  0  0  0  0  0  0  0  0
   28.6592   -5.8798    0.0000 C   0  0  0  0  0  0  0  0  0  0  0  0
   29.3730   -5.4663    0.0000 C   0  0  0  0  0  0  0  0  0  0  0  0
   29.3702   -4.6395    0.0000 C   0  0  0  0  0  0  0  0  0  0  0  0
   30.0855   -5.8779    0.0000 C   0  0  0  0  0  0  0  0  0  0  0  0
   30.7967   -5.4641    0.0000 N   0  0  0  0  0  0  0  0  0  0  0  0
   31.5091   -5.8757    0.0000 C   0  0  0  0  0  0  0  0  0  0  0  0
   32.2203   -5.4618    0.0000 C   0  0  0  0  0  0  0  0  0  0  0  0
   32.9315   -5.8748    0.0000 C   0  0  0  0  0  0  0  0  0  0  0  0
   33.6381   -5.4616    0.0000 C   0  0  0  0  0  0  0  0  0  0  0  0
   33.6373   -4.6395    0.0000 C   0  0  0  0  0  0  0  0  0  0  0  0
   32.9239   -4.2321    0.0000 C   0  0  0  0  0  0  0  0  0  0  0  0
   32.2161   -4.6435    0.0000 C   0  0  0  0  0  0  0  0  0  0  0  0
   35.0609   -4.6354    0.0000 C   0  0  0  0  0  0  0  0  0  0  0  0
   35.7716   -4.2247    0.0000 C   0  0  0  0  0  0  0  0  0  0  0  0
   27.9482   -4.6431    0.0000 C   0  0  0  0  0  0  0  0  0  0  0  0
   28.6533   -4.2318    0.0000 C   0  0  0  0  0  0  0  0  0  0  0  0
   27.3405   -4.1034    0.0000 N   0  0  0  0  0  0  0  0  0  0  0  0
   30.0867   -6.6992    0.0000 O   0  0  0  0  0  0  0  0  0  0  0  0
   27.6623   -3.3565    0.0000 C   0  0  0  0  0  0  0  0  0  0  0  0
   28.4767   -3.4371    0.0000 C   0  0  0  0  0  0  0  0  0  0  0  0
   28.9518   -2.7731    0.0000 C   0  0  0  0  0  0  0  0  0  0  0  0
   28.6137   -2.0281    0.0000 C   0  0  0  0  0  0  0  0  0  0  0  0
   27.7959   -1.9512    0.0000 C   0  0  0  0  0  0  0  0  0  0  0  0
   27.3244   -2.6161    0.0000 C   0  0  0  0  0  0  0  0  0  0  0  0
   26.5428   -4.2808    0.0000 C   0  0  0  0  0  0  0  0  0  0  0  0
   25.9902   -3.6787    0.0000 C   0  0  0  0  0  0  0  0  0  0  0  0
   29.0881   -1.3627    0.0000 Cl  0  0  0  0  0  0  0  0  0  0  0  0
  2  1  2  0
  3  2  2  0
 19  4  2  0
  4  5  1  0
  5  6  2  0
  6  7  1  0
  7 20  2  0
  6  8  1  0
  8  9  1  0
  9 10  1  0
 10 11  1  0
 11 12  2  0
 12 13  1  0
 13 14  2  0
 14 15  1  0
 15 16  2  0
 16 11  1  0
 14  2  1  0
  2 17  1  0
 17 18  1  0
 19 20  1  0
 20 24  1  0
 23 21  1  0
 21 19  1  0
  8 22  2  0
 23 24  2  0
 24 25  1  0
 25 26  2  0
 26 27  1  0
 27 28  2  0
 28 23  1  0
 21 29  1  0
 29 30  1  0
 26 31  1  0
M  END
>  <chembl_id>  (80) 
CHEMBL4206135

$$$$
CHEMBL4451431
     RDKit          2D

 36 40  0  0  0  0  0  0  0  0999 V2000
    5.8559   -1.8613    0.0000 C   0  0  0  0  0  0  0  0  0  0  0  0
    5.1406   -2.2741    0.0000 N   0  0  0  0  0  0  0  0  0  0  0  0
    5.1406   -3.1034    0.0000 C   0  0  0  0  0  0  0  0  0  0  0  0
    5.8577   -3.5119    0.0000 C   0  0  0  0  0  0  0  0  0  0  0  0
    6.5685   -3.0997    0.0000 C   0  0  0  0  0  0  0  0  0  0  0  0
    6.5685   -2.2737    0.0000 N   0  0  0  0  0  0  0  0  0  0  0  0
    7.2830   -3.5122    0.0000 N   0  0  0  0  0  0  0  0  0  0  0  0
    5.6908   -4.3201    0.0000 N   0  0  0  0  0  0  0  0  0  0  0  0
    4.8705   -4.4110    0.0000 C   0  0  0  0  0  0  0  0  0  0  0  0
    4.5306   -3.6591    0.0000 C   0  0  0  0  0  0  0  0  0  0  0  0
    3.7104   -3.7500    0.0000 C   0  0  0  0  0  0  0  0  0  0  0  0
    3.5435   -4.5581    0.0000 C   0  0  0  0  0  0  0  0  0  0  0  0
    4.2605   -4.9666    0.0000 C   0  0  0  0  0  0  0  0  0  0  0  0
    6.2741   -4.9033    0.0000 C   0  0  0  0  0  0  0  0  0  0  0  0
    7.0711   -4.6901    0.0000 C   0  0  0  0  0  0  0  0  0  0  0  0
    7.6522   -5.2722    0.0000 C   0  0  0  0  0  0  0  0  0  0  0  0
    7.4386   -6.0693    0.0000 C   0  0  0  0  0  0  0  0  0  0  0  0
    6.6461   -6.2833    0.0000 C   0  0  0  0  0  0  0  0  0  0  0  0
    6.0597   -5.7037    0.0000 C   0  0  0  0  0  0  0  0  0  0  0  0
    6.4326   -7.0802    0.0000 O   0  0  0  0  0  0  0  0  0  0  0  0
    7.0159   -7.6635    0.0000 C   0  0  0  0  0  0  0  0  0  0  0  0
    8.0220   -6.6527    0.0000 N   0  0  0  0  0  0  0  0  0  0  0  0
    8.8188   -6.4391    0.0000 C   0  0  0  0  0  0  0  0  0  0  0  0
    9.4021   -7.0225    0.0000 C   0  0  0  0  0  0  0  0  0  0  0  0
   10.1990   -6.8089    0.0000 C   0  0  0  0  0  0  0  0  0  0  0  0
   10.7848   -7.3948    0.0000 C   0  0  0  0  0  0  0  0  0  0  0  0
   11.5800   -7.1768    0.0000 C   0  0  0  0  0  0  0  0  0  0  0  0
   11.7910   -6.3835    0.0000 C   0  0  0  0  0  0  0  0  0  0  0  0
   11.2074   -5.8000    0.0000 C   0  0  0  0  0  0  0  0  0  0  0  0
   10.4128   -6.0121    0.0000 C   0  0  0  0  0  0  0  0  0  0  0  0
   12.5878   -6.1699    0.0000 Cl  0  0  0  0  0  0  0  0  0  0  0  0
   12.1634   -7.7602    0.0000 C   0  0  0  0  0  0  0  0  0  0  0  0
   12.9602   -7.5467    0.0000 F   0  0  0  0  0  0  0  0  0  0  0  0
   11.9499   -8.5570    0.0000 F   0  0  0  0  0  0  0  0  0  0  0  0
   12.7467   -8.3435    0.0000 F   0  0  0  0  0  0  0  0  0  0  0  0
    9.0323   -5.6423    0.0000 O   0  0  0  0  0  0  0  0  0  0  0  0
  1  2  2  0
  2  3  1  0
  4  3  2  0
  5  4  1  0
  6  5  2  0
  1  6  1  0
  5  7  1  0
  4  8  1  0
  9  8  1  0
  9 10  2  0
  3 10  1  0
 10 11  1  0
 12 11  1  0
 12 13  1  0
  9 13  1  0
  8 14  1  0
 15 14  2  0
 16 15  1  0
 17 16  2  0
 18 17  1  0
 18 19  2  0
 14 19  1  0
 18 20  1  0
 20 21  1  0
 17 22  1  0
 22 23  1  0
 23 24  1  0
 24 25  1  0
 25 26  2  0
 27 26  1  0
 28 27  2  0
 29 28  1  0
 29 30  2  0
 30 25  1  0
 28 31  1  0
 27 32  1  0
 32 33  1  0
 32 34  1  0
 32 35  1  0
 23 36  2  0
M  END
>  <chembl_id>  (81) 
CHEMBL4451431

$$$$
CHEMBL4454417
     RDKit          2D

 37 41  0  0  0  0  0  0  0  0999 V2000
   37.0234  -21.8573    0.0000 C   0  0  0  0  0  0  0  0  0  0  0  0
   36.2088  -21.8549    0.0000 C   0  0  0  0  0  0  0  0  0  0  0  0
   35.8024  -22.5631    0.0000 C   0  0  0  0  0  0  0  0  0  0  0  0
   36.2133  -23.2705    0.0000 C   0  0  0  0  0  0  0  0  0  0  0  0
   37.0347  -23.2653    0.0000 C   0  0  0  0  0  0  0  0  0  0  0  0
   37.4373  -22.5567    0.0000 C   0  0  0  0  0  0  0  0  0  0  0  0
   34.5573  -18.2176    0.0000 O   0  0  0  0  0  0  0  0  0  0  0  0
   34.5614  -19.0348    0.0000 S   0  0  0  0  0  0  0  0  0  0  0  0
   35.2671  -18.6226    0.0000 O   0  0  0  0  0  0  0  0  0  0  0  0
   28.6306  -18.6592    0.0000 N   0  0  0  0  0  0  0  0  0  0  0  0
   28.6306  -19.4764    0.0000 C   0  0  0  0  0  0  0  0  0  0  0  0
   29.3359  -19.8809    0.0000 N   0  0  0  0  0  0  0  0  0  0  0  0
   29.3359  -18.2465    0.0000 C   0  0  0  0  0  0  0  0  0  0  0  0
   30.0411  -18.6592    0.0000 C   0  0  0  0  0  0  0  0  0  0  0  0
   30.0456  -19.4729    0.0000 C   0  0  0  0  0  0  0  0  0  0  0  0
   30.8208  -19.7201    0.0000 N   0  0  0  0  0  0  0  0  0  0  0  0
   31.2955  -19.0592    0.0000 C   0  0  0  0  0  0  0  0  0  0  0  0
   30.8136  -18.4036    0.0000 N   0  0  0  0  0  0  0  0  0  0  0  0
   29.3359  -17.4293    0.0000 O   0  0  0  0  0  0  0  0  0  0  0  0
   32.1127  -19.0546    0.0000 C   0  0  0  0  0  0  0  0  0  0  0  0
   27.9235  -19.8860    0.0000 O   0  0  0  0  0  0  0  0  0  0  0  0
   27.9217  -18.2527    0.0000 C   0  0  0  0  0  0  0  0  0  0  0  0
   27.2152  -18.6633    0.0000 C   0  0  0  0  0  0  0  0  0  0  0  0
   26.5063  -18.2568    0.0000 C   0  0  0  0  0  0  0  0  0  0  0  0
   32.5228  -19.7589    0.0000 C   0  0  0  0  0  0  0  0  0  0  0  0
   33.3392  -19.7547    0.0000 C   0  0  0  0  0  0  0  0  0  0  0  0
   33.7447  -19.0442    0.0000 C   0  0  0  0  0  0  0  0  0  0  0  0
   33.3278  -18.3364    0.0000 C   0  0  0  0  0  0  0  0  0  0  0  0
   32.5127  -18.3441    0.0000 C   0  0  0  0  0  0  0  0  0  0  0  0
   34.9753  -19.7435    0.0000 N   0  0  0  0  0  0  0  0  0  0  0  0
   34.5699  -20.4504    0.0000 C   0  0  0  0  0  0  0  0  0  0  0  0
   34.9798  -21.1532    0.0000 C   0  0  0  0  0  0  0  0  0  0  0  0
   35.7974  -21.1518    0.0000 N   0  0  0  0  0  0  0  0  0  0  0  0
   36.2033  -20.4415    0.0000 C   0  0  0  0  0  0  0  0  0  0  0  0
   35.7917  -19.7325    0.0000 C   0  0  0  0  0  0  0  0  0  0  0  0
   37.4479  -23.9703    0.0000 Cl  0  0  0  0  0  0  0  0  0  0  0  0
   38.2545  -22.5494    0.0000 O   0  0  0  0  0  0  0  0  0  0  0  0
  1  2  2  0
  2  3  1  0
  3  4  2  0
  4  5  1  0
  5  6  2  0
  6  1  1  0
  8  7  2  0
  9  8  2  0
 10 11  1  0
 10 13  1  0
 11 12  1  0
 12 15  1  0
 14 13  1  0
 14 15  2  0
 15 16  1  0
 16 17  2  0
 17 18  1  0
 18 14  1  0
 13 19  2  0
 17 20  1  0
 11 21  2  0
 10 22  1  0
 22 23  1  0
 23 24  1  0
 20 25  2  0
 25 26  1  0
 26 27  2  0
 27 28  1  0
 28 29  2  0
 29 20  1  0
 27  8  1  0
  8 30  1  0
 30 31  1  0
 30 35  1  0
 31 32  1  0
 32 33  1  0
 33 34  1  0
 34 35  1  0
 33  2  1  0
  5 36  1  0
  6 37  1  0
M  END
>  <chembl_id>  (82) 
CHEMBL4454417

$$$$
CHEMBL4468178
     RDKit          2D

 24 26  0  0  0  0  0  0  0  0999 V2000
    3.2178  -18.9852    0.0000 C   0  0  0  0  0  0  0  0  0  0  0  0
    3.2167  -19.8048    0.0000 C   0  0  0  0  0  0  0  0  0  0  0  0
    3.9247  -20.2137    0.0000 C   0  0  0  0  0  0  0  0  0  0  0  0
    4.6344  -19.8043    0.0000 C   0  0  0  0  0  0  0  0  0  0  0  0
    4.6316  -18.9816    0.0000 C   0  0  0  0  0  0  0  0  0  0  0  0
    3.9229  -18.5764    0.0000 C   0  0  0  0  0  0  0  0  0  0  0  0
    3.9147  -17.7583    0.0000 N   0  0  0  0  0  0  0  0  0  0  0  0
    4.5743  -17.2759    0.0000 N   0  0  0  0  0  0  0  0  0  0  0  0
    4.3195  -16.4995    0.0000 C   0  0  0  0  0  0  0  0  0  0  0  0
    3.5022  -16.5019    0.0000 C   0  0  0  0  0  0  0  0  0  0  0  0
    3.2522  -17.2799    0.0000 C   0  0  0  0  0  0  0  0  0  0  0  0
    2.4757  -17.5348    0.0000 C   0  0  0  0  0  0  0  0  0  0  0  0
    2.7900  -16.0921    0.0000 C   0  0  0  0  0  0  0  0  0  0  0  0
    2.0829  -16.5017    0.0000 O   0  0  0  0  0  0  0  0  0  0  0  0
    2.7889  -15.2749    0.0000 N   0  0  0  0  0  0  0  0  0  0  0  0
    3.4960  -14.8653    0.0000 C   0  0  0  0  0  0  0  0  0  0  0  0
    3.4948  -14.0481    0.0000 C   0  0  0  0  0  0  0  0  0  0  0  0
    4.2011  -13.6411    0.0000 C   0  0  0  0  0  0  0  0  0  0  0  0
    4.2003  -12.8247    0.0000 C   0  0  0  0  0  0  0  0  0  0  0  0
    3.4915  -12.4163    0.0000 C   0  0  0  0  0  0  0  0  0  0  0  0
    2.7820  -12.8302    0.0000 C   0  0  0  0  0  0  0  0  0  0  0  0
    2.7863  -13.6453    0.0000 C   0  0  0  0  0  0  0  0  0  0  0  0
    3.9245  -21.0309    0.0000 Cl  0  0  0  0  0  0  0  0  0  0  0  0
    4.9076  -12.4154    0.0000 O   0  0  0  0  0  0  0  0  0  0  0  0
  1  2  2  0
  2  3  1  0
  3  4  2  0
  4  5  1  0
  5  6  2  0
  6  1  1  0
  7  8  1  0
  8  9  2  0
  9 10  1  0
 10 11  2  0
 11  7  1  0
  6  7  1  0
 11 12  1  0
 10 13  1  0
 13 14  2  0
 13 15  1  0
 15 16  1  0
 16 17  1  0
 17 18  2  0
 18 19  1  0
 19 20  2  0
 20 21  1  0
 21 22  2  0
 22 17  1  0
  3 23  1  0
 19 24  1  0
M  END
>  <chembl_id>  (83) 
CHEMBL4468178

$$$$
CHEMBL4533344
     RDKit          2D

 29 32  0  0  0  0  0  0  0  0999 V2000
    0.2917   -0.7475    0.0000 C   0  0  0  0  0  0  0  0  0  0  0  0
    1.7138   -1.2033    0.0000 N   0  0  0  0  0  0  0  0  0  0  0  0
    0.2917    0.7475    0.0000 N   0  0  0  0  0  0  0  0  0  0  0  0
   -1.0028    1.5132    0.0000 C   0  0  0  0  0  0  0  0  0  0  0  0
   -2.3155    0.7475    0.0000 C   0  0  0  0  0  0  0  0  0  0  0  0
   -2.3155   -0.7475    0.0000 N   0  0  0  0  0  0  0  0  0  0  0  0
   -1.0028   -1.5132    0.0000 C   0  0  0  0  0  0  0  0  0  0  0  0
   -0.9982   -3.0140    0.0000 N   0  0  0  0  0  0  0  0  0  0  0  0
    0.2977   -3.7689    0.0000 C   0  0  0  0  0  0  0  0  0  0  0  0
    0.2918   -5.2689    0.0000 C   0  0  0  0  0  0  0  0  0  0  0  0
   -2.3004   -3.7588    0.0000 C   0  0  0  0  0  0  0  0  0  0  0  0
   -2.3063   -5.2587    0.0000 C   0  0  0  0  0  0  0  0  0  0  0  0
   -1.0102   -6.0138    0.0000 S   0  0  0  0  0  0  0  0  0  0  0  0
    1.7138    1.2033    0.0000 C   0  0  0  0  0  0  0  0  0  0  0  0
    2.5889    0.0182    0.0000 N   0  0  0  0  0  0  0  0  0  0  0  0
    4.0872    0.0320    0.0000 C   0  0  0  0  0  0  0  0  0  0  0  0
    4.8506   -1.2602    0.0000 C   0  0  0  0  0  0  0  0  0  0  0  0
    4.2606   -2.3052    0.0000 O   0  0  0  0  0  0  0  0  0  0  0  0
    6.3513   -1.2462    0.0000 N   0  0  0  0  0  0  0  0  0  0  0  0
    7.1146   -2.5384    0.0000 C   0  0  0  0  0  0  0  0  0  0  0  0
    8.6154   -2.5245    0.0000 C   0  0  0  0  0  0  0  0  0  0  0  0
    9.3507   -1.2170    0.0000 C   0  0  0  0  0  0  0  0  0  0  0  0
   10.8506   -1.2000    0.0000 C   0  0  0  0  0  0  0  0  0  0  0  0
   11.6153   -2.4904    0.0000 C   0  0  0  0  0  0  0  0  0  0  0  0
   10.8801   -3.7979    0.0000 C   0  0  0  0  0  0  0  0  0  0  0  0
    9.3802   -3.8149    0.0000 C   0  0  0  0  0  0  0  0  0  0  0  0
    8.6473   -5.1246    0.0000 O   0  0  0  0  0  0  0  0  0  0  0  0
    9.2605   -6.1561    0.0000 C   0  0  0  0  0  0  0  0  0  0  0  0
    2.0825    2.3453    0.0000 O   0  0  0  0  0  0  0  0  0  0  0  0
  1  2  2  0
  1  3  1  0
  3  4  1  0
  4  5  2  0
  5  6  1  0
  6  7  2  0
  7  1  1  0
  7  8  1  0
  8  9  1  0
  9 10  1  0
  8 11  1  0
 11 12  1  0
 12 13  1  0
 13 10  1  0
  3 14  1  0
 14 15  1  0
 15  2  1  0
 15 16  1  0
 16 17  1  0
 17 18  2  0
 17 19  1  0
 19 20  1  0
 20 21  1  0
 21 22  2  0
 22 23  1  0
 23 24  2  0
 24 25  1  0
 25 26  2  0
 26 21  1  0
 26 27  1  0
 27 28  1  0
 14 29  2  0
M  END
>  <chembl_id>  (84) 
CHEMBL4533344

$$$$
CHEMBL4636756
     RDKit          2D

 20 22  0  0  0  0  0  0  0  0999 V2000
   19.4126   -3.0335    0.0000 C   0  0  0  0  0  0  0  0  0  0  0  0
   16.1292   -4.4547    0.0000 C   0  0  0  0  0  0  0  0  0  0  0  0
   16.9487   -4.4558    0.0000 C   0  0  0  0  0  0  0  0  0  0  0  0
   17.3597   -3.7472    0.0000 C   0  0  0  0  0  0  0  0  0  0  0  0
   16.9482   -3.0370    0.0000 C   0  0  0  0  0  0  0  0  0  0  0  0
   16.1256   -3.0398    0.0000 C   0  0  0  0  0  0  0  0  0  0  0  0
   15.7223   -3.7490    0.0000 C   0  0  0  0  0  0  0  0  0  0  0  0
   18.1811   -3.7474    0.0000 C   0  0  0  0  0  0  0  0  0  0  0  0
   18.5898   -3.0357    0.0000 O   0  0  0  0  0  0  0  0  0  0  0  0
   19.9986   -3.6199    0.0000 C   0  0  0  0  0  0  0  0  0  0  0  0
   20.5759   -3.0354    0.0000 N   0  0  0  0  0  0  0  0  0  0  0  0
   19.9955   -2.4581    0.0000 C   0  0  0  0  0  0  0  0  0  0  0  0
   21.3972   -3.0332    0.0000 C   0  0  0  0  0  0  0  0  0  0  0  0
   22.2204   -3.0352    0.0000 N   0  0  0  0  0  0  0  0  0  0  0  0
   14.9057   -3.7533    0.0000 C   0  0  0  0  0  0  0  0  0  0  0  0
   14.4915   -3.0411    0.0000 C   0  0  0  0  0  0  0  0  0  0  0  0
   13.6710   -3.0431    0.0000 C   0  0  0  0  0  0  0  0  0  0  0  0
   13.2637   -3.7567    0.0000 C   0  0  0  0  0  0  0  0  0  0  0  0
   13.6788   -4.4697    0.0000 N   0  0  0  0  0  0  0  0  0  0  0  0
   14.4980   -4.4641    0.0000 C   0  0  0  0  0  0  0  0  0  0  0  0
  2  3  2  0
  3  4  1  0
  4  5  2  0
  5  6  1  0
  6  7  2  0
  7  2  1  0
  4  8  1  0
  8  9  1  0
  9  1  1  0
  1 10  1  0
 10 11  1  0
 11 12  1  0
 12  1  1  0
 11 13  1  0
 13 14  3  0
 15 16  2  0
 16 17  1  0
 17 18  2  0
 18 19  1  0
 19 20  2  0
 20 15  1  0
  7 15  1  0
M  END
>  <chembl_id>  (85) 
CHEMBL4636756

$$$$
CHEMBL4642283
     RDKit          2D

 39 43  0  0  0  0  0  0  0  0999 V2000
   22.3925   -9.5188    0.0000 C   0  0  0  0  0  0  0  0  0  0  0  0
   21.6857   -9.9267    0.0000 O   0  0  0  0  0  0  0  0  0  0  0  0
   23.1049   -9.9261    0.0000 O   0  0  0  0  0  0  0  0  0  0  0  0
   22.3925   -8.6997    0.0000 C   0  0  0  0  0  0  0  0  0  0  0  0
   23.0561   -8.2211    0.0000 C   0  0  0  0  0  0  0  0  0  0  0  0
   22.8057   -7.4411    0.0000 C   0  0  0  0  0  0  0  0  0  0  0  0
   21.9846   -7.4411    0.0000 N   0  0  0  0  0  0  0  0  0  0  0  0
   21.7281   -8.2213    0.0000 N   0  0  0  0  0  0  0  0  0  0  0  0
   23.2882   -6.7802    0.0000 C   0  0  0  0  0  0  0  0  0  0  0  0
   23.0369   -6.0008    0.0000 C   0  0  0  0  0  0  0  0  0  0  0  0
   23.6966   -5.5159    0.0000 N   0  0  0  0  0  0  0  0  0  0  0  0
   24.3624   -6.0008    0.0000 C   0  0  0  0  0  0  0  0  0  0  0  0
   24.1050   -6.7802    0.0000 C   0  0  0  0  0  0  0  0  0  0  0  0
   24.5851   -7.4427    0.0000 C   0  0  0  0  0  0  0  0  0  0  0  0
   25.4037   -7.3549    0.0000 C   0  0  0  0  0  0  0  0  0  0  0  0
   25.8839   -8.0174    0.0000 C   0  0  0  0  0  0  0  0  0  0  0  0
   25.5575   -8.7665    0.0000 C   0  0  0  0  0  0  0  0  0  0  0  0
   24.7389   -8.8543    0.0000 C   0  0  0  0  0  0  0  0  0  0  0  0
   24.2510   -8.1931    0.0000 C   0  0  0  0  0  0  0  0  0  0  0  0
   26.0377   -9.4301    0.0000 O   0  0  0  0  0  0  0  0  0  0  0  0
   26.8541   -9.3413    0.0000 C   0  0  0  0  0  0  0  0  0  0  0  0
   27.3344  -10.0007    0.0000 C   0  0  0  0  0  0  0  0  0  0  0  0
   28.1508   -9.9119    0.0000 C   0  0  0  0  0  0  0  0  0  0  0  0
   28.6309  -10.5714    0.0000 C   0  0  0  0  0  0  0  0  0  0  0  0
   29.4474  -10.4866    0.0000 C   0  0  0  0  0  0  0  0  0  0  0  0
   29.9276  -11.1461    0.0000 C   0  0  0  0  0  0  0  0  0  0  0  0
   30.7456  -11.0531    0.0000 C   0  0  0  0  0  0  0  0  0  0  0  0
   31.2300  -11.7167    0.0000 C   0  0  0  0  0  0  0  0  0  0  0  0
   30.9042  -12.4680    0.0000 C   0  0  0  0  0  0  0  0  0  0  0  0
   30.0862  -12.5568    0.0000 C   0  0  0  0  0  0  0  0  0  0  0  0
   29.5940  -11.8986    0.0000 C   0  0  0  0  0  0  0  0  0  0  0  0
   23.6966   -4.6968    0.0000 C   0  0  0  0  0  0  0  0  0  0  0  0
   24.4018   -4.2878    0.0000 C   0  0  0  0  0  0  0  0  0  0  0  0
   24.4018   -3.4667    0.0000 C   0  0  0  0  0  0  0  0  0  0  0  0
   25.1075   -3.0535    0.0000 C   0  0  0  0  0  0  0  0  0  0  0  0
   25.8195   -3.4576    0.0000 C   0  0  0  0  0  0  0  0  0  0  0  0
   25.8195   -4.2828    0.0000 C   0  0  0  0  0  0  0  0  0  0  0  0
   25.1139   -4.6997    0.0000 C   0  0  0  0  0  0  0  0  0  0  0  0
   26.5280   -3.0441    0.0000 F   0  0  0  0  0  0  0  0  0  0  0  0
  1  2  1  0
  1  3  2  0
  4  1  1  0
  5  4  2  0
  6  5  1  0
  7  6  2  0
  8  7  1  0
  8  4  1  0
  9  6  1  0
 10  9  2  0
 11 10  1  0
 11 12  1  0
 13 12  2  0
  9 13  1  0
 14 13  1  0
 14 15  2  0
 15 16  1  0
 16 17  2  0
 17 18  1  0
 18 19  2  0
 14 19  1  0
 20 17  1  0
 21 20  1  0
 21 22  1  0
 22 23  1  0
 23 24  1  0
 24 25  1  0
 26 25  1  0
 26 27  2  0
 27 28  1  0
 28 29  2  0
 29 30  1  0
 30 31  2  0
 26 31  1  0
 32 11  1  0
 33 32  1  0
 33 34  2  0
 34 35  1  0
 35 36  2  0
 36 37  1  0
 37 38  2  0
 33 38  1  0
 39 36  1  0
M  END
>  <chembl_id>  (86) 
CHEMBL4642283

$$$$
CHEMBL4746218
     RDKit          2D

 28 31  0  0  0  0  0  0  0  0999 V2000
    2.0911  -11.7295    0.0000 C   0  0  0  0  0  0  0  0  0  0  0  0
    2.0899  -12.5532    0.0000 C   0  0  0  0  0  0  0  0  0  0  0  0
    2.8021  -12.9663    0.0000 C   0  0  0  0  0  0  0  0  0  0  0  0
    3.5159  -12.5527    0.0000 C   0  0  0  0  0  0  0  0  0  0  0  0
    3.5131  -11.7259    0.0000 C   0  0  0  0  0  0  0  0  0  0  0  0
    2.8003  -11.3207    0.0000 C   0  0  0  0  0  0  0  0  0  0  0  0
    4.2284  -12.9643    0.0000 C   0  0  0  0  0  0  0  0  0  0  0  0
    4.2297  -13.7857    0.0000 C   0  0  0  0  0  0  0  0  0  0  0  0
    4.9396  -12.5505    0.0000 C   0  0  0  0  0  0  0  0  0  0  0  0
    3.5172  -14.1938    0.0000 C   0  0  0  0  0  0  0  0  0  0  0  0
    3.5181  -15.0144    0.0000 C   0  0  0  0  0  0  0  0  0  0  0  0
    4.2311  -15.4268    0.0000 C   0  0  0  0  0  0  0  0  0  0  0  0
    4.9402  -14.1894    0.0000 C   0  0  0  0  0  0  0  0  0  0  0  0
    4.9444  -15.0064    0.0000 C   0  0  0  0  0  0  0  0  0  0  0  0
    5.6466  -15.4112    0.0000 C   0  0  0  0  0  0  0  0  0  0  0  0
    6.3533  -14.9992    0.0000 C   0  0  0  0  0  0  0  0  0  0  0  0
    6.3491  -14.1822    0.0000 C   0  0  0  0  0  0  0  0  0  0  0  0
    5.6383  -13.7771    0.0000 O   0  0  0  0  0  0  0  0  0  0  0  0
    4.2345  -16.2481    0.0000 O   0  0  0  0  0  0  0  0  0  0  0  0
    2.8053  -13.7853    0.0000 O   0  0  0  0  0  0  0  0  0  0  0  0
    5.6497  -16.2325    0.0000 O   0  0  0  0  0  0  0  0  0  0  0  0
    7.0558  -13.7722    0.0000 C   0  0  0  0  0  0  0  0  0  0  0  0
    7.7696  -14.1796    0.0000 C   0  0  0  0  0  0  0  0  0  0  0  0
    8.4792  -13.7688    0.0000 C   0  0  0  0  0  0  0  0  0  0  0  0
    8.4763  -12.9466    0.0000 C   0  0  0  0  0  0  0  0  0  0  0  0
    7.7578  -12.5370    0.0000 C   0  0  0  0  0  0  0  0  0  0  0  0
    7.0511  -12.9543    0.0000 C   0  0  0  0  0  0  0  0  0  0  0  0
    4.9383  -11.7292    0.0000 C   0  0  0  0  0  0  0  0  0  0  0  0
  1  2  2  0
  2  3  1  0
  3  4  2  0
  4  5  1  0
  5  6  2  0
  6  1  1  0
  4  7  1  0
  7  8  1  0
  7  9  1  0
  8 10  2  0
 10 11  1  0
 11 12  2  0
 12 14  1  0
 13  8  1  0
 13 14  2  0
 13 18  1  0
 14 15  1  0
 15 16  1  0
 16 17  2  0
 17 18  1  0
 12 19  1  0
 10 20  1  0
 15 21  2  0
 22 23  2  0
 23 24  1  0
 24 25  2  0
 25 26  1  0
 26 27  2  0
 27 22  1  0
 17 22  1  0
  9 28  2  0
M  END
>  <chembl_id>  (87) 
CHEMBL4746218

$$$$
CHEMBL4782417
     RDKit          2D

 43 48  0  0  0  0  0  0  0  0999 V2000
    6.1207  -16.5172    0.0000 O   0  0  0  0  0  0  0  0  0  0  0  0
    6.7026  -17.0991    0.0000 S   0  0  0  0  0  0  0  0  0  0  0  0
    6.9156  -16.3042    0.0000 O   0  0  0  0  0  0  0  0  0  0  0  0
    5.3117  -17.6810    0.0000 C   0  0  0  0  0  0  0  0  0  0  0  0
    5.3117  -18.4982    0.0000 C   0  0  0  0  0  0  0  0  0  0  0  0
    6.1289  -18.4982    0.0000 C   0  0  0  0  0  0  0  0  0  0  0  0
    6.1289  -17.6810    0.0000 N   0  0  0  0  0  0  0  0  0  0  0  0
    7.4961  -17.3147    0.0000 C   0  0  0  0  0  0  0  0  0  0  0  0
    7.7040  -18.1051    0.0000 C   0  0  0  0  0  0  0  0  0  0  0  0
    8.4925  -18.3168    0.0000 C   0  0  0  0  0  0  0  0  0  0  0  0
    9.0713  -17.7386    0.0000 C   0  0  0  0  0  0  0  0  0  0  0  0
    8.8561  -16.9459    0.0000 C   0  0  0  0  0  0  0  0  0  0  0  0
    8.0680  -16.7379    0.0000 C   0  0  0  0  0  0  0  0  0  0  0  0
    7.8533  -15.9495    0.0000 F   0  0  0  0  0  0  0  0  0  0  0  0
    9.4319  -16.3660    0.0000 F   0  0  0  0  0  0  0  0  0  0  0  0
    9.8609  -17.9491    0.0000 F   0  0  0  0  0  0  0  0  0  0  0  0
    8.7036  -19.1062    0.0000 F   0  0  0  0  0  0  0  0  0  0  0  0
    7.1247  -18.6815    0.0000 F   0  0  0  0  0  0  0  0  0  0  0  0
    4.7339  -17.1032    0.0000 C   0  0  0  0  0  0  0  0  0  0  0  0
    4.9454  -16.3138    0.0000 O   0  0  0  0  0  0  0  0  0  0  0  0
    3.9445  -17.3147    0.0000 N   0  0  0  0  0  0  0  0  0  0  0  0
    3.3667  -16.7368    0.0000 C   0  0  0  0  0  0  0  0  0  0  0  0
    3.5782  -15.9475    0.0000 C   0  0  0  0  0  0  0  0  0  0  0  0
    4.3654  -15.7393    0.0000 C   0  0  0  0  0  0  0  0  0  0  0  0
    4.5770  -14.9508    0.0000 N   0  0  0  0  0  0  0  0  0  0  0  0
    3.9989  -14.3720    0.0000 C   0  0  0  0  0  0  0  0  0  0  0  0
    3.2061  -14.5871    0.0000 C   0  0  0  0  0  0  0  0  0  0  0  0
    2.9982  -15.3753    0.0000 N   0  0  0  0  0  0  0  0  0  0  0  0
    4.2107  -13.5862    0.0000 C   0  0  0  0  0  0  0  0  0  0  0  0
    5.0012  -13.3753    0.0000 C   0  0  0  0  0  0  0  0  0  0  0  0
    5.2127  -12.5948    0.0000 C   0  0  0  0  0  0  0  0  0  0  0  0
    4.6368  -12.0112    0.0000 C   0  0  0  0  0  0  0  0  0  0  0  0
    3.8463  -12.2213    0.0000 C   0  0  0  0  0  0  0  0  0  0  0  0
    3.6317  -13.0114    0.0000 C   0  0  0  0  0  0  0  0  0  0  0  0
    3.7330  -18.1040    0.0000 C   0  0  0  0  0  0  0  0  0  0  0  0
    2.9433  -18.3107    0.0000 C   0  0  0  0  0  0  0  0  0  0  0  0
    2.7317  -19.0992    0.0000 C   0  0  0  0  0  0  0  0  0  0  0  0
    4.3105  -18.6747    0.0000 C   0  0  0  0  0  0  0  0  0  0  0  0
    4.0992  -19.4671    0.0000 C   0  0  0  0  0  0  0  0  0  0  0  0
    3.3124  -19.6729    0.0000 C   0  0  0  0  0  0  0  0  0  0  0  0
    3.2650  -20.4847    0.0000 N   0  0  0  0  0  0  0  0  0  0  0  0
    4.0225  -20.7807    0.0000 N   0  0  0  0  0  0  0  0  0  0  0  0
    4.5380  -20.1518    0.0000 N   0  0  0  0  0  0  0  0  0  0  0  0
  2  1  2  0
  3  2  2  0
  4  5  1  0
  5  6  1  0
  6  7  1  0
  7  4  1  0
  7  2  1  0
  2  8  1  0
  8  9  2  0
  9 10  1  0
 10 11  2  0
 11 12  1  0
 12 13  2  0
 13  8  1  0
 13 14  1  0
 12 15  1  0
 11 16  1  0
 10 17  1  0
  9 18  1  0
  4 19  1  6
 19 20  2  0
 19 21  1  0
 21 22  1  0
 22 23  1  0
 23 24  2  0
 24 25  1  0
 25 26  2  0
 26 27  1  0
 27 28  2  0
 28 23  1  0
 29 30  1  0
 29 34  1  0
 30 31  1  0
 31 32  1  0
 32 33  1  0
 33 34  1  0
 26 29  1  0
 21 35  1  0
 35 36  2  0
 36 37  1  0
 37 40  2  0
 39 38  2  0
 38 35  1  0
 39 40  1  0
 40 41  1  0
 41 42  2  0
 42 43  1  0
 43 39  1  0
M  END
>  <chembl_id>  (88) 
CHEMBL4782417

$$$$
CHEMBL4845792
     RDKit          2D

 31 34  0  0  0  0  0  0  0  0999 V2000
   10.2614   -7.2242    0.0000 O   0  0  0  0  0  0  0  0  0  0  0  0
   10.6780   -7.9408    0.0000 S   0  0  0  0  0  0  0  0  0  0  0  0
   11.0902   -7.2217    0.0000 O   0  0  0  0  0  0  0  0  0  0  0  0
    8.5393   -8.3615    0.0000 C   0  0  0  0  0  0  0  0  0  0  0  0
    8.5382   -9.1888    0.0000 C   0  0  0  0  0  0  0  0  0  0  0  0
    9.2529   -9.6016    0.0000 C   0  0  0  0  0  0  0  0  0  0  0  0
    9.9693   -9.1883    0.0000 C   0  0  0  0  0  0  0  0  0  0  0  0
    9.9663   -8.3579    0.0000 C   0  0  0  0  0  0  0  0  0  0  0  0
    9.2510   -7.9488    0.0000 C   0  0  0  0  0  0  0  0  0  0  0  0
   11.3951   -8.3525    0.0000 N   0  0  0  0  0  0  0  0  0  0  0  0
   11.3956   -9.1746    0.0000 C   0  0  0  0  0  0  0  0  0  0  0  0
   12.1075   -9.5843    0.0000 C   0  0  0  0  0  0  0  0  0  0  0  0
   12.8227   -9.1726    0.0000 C   0  0  0  0  0  0  0  0  0  0  0  0
   12.8216   -8.3468    0.0000 C   0  0  0  0  0  0  0  0  0  0  0  0
   12.1052   -7.9325    0.0000 C   0  0  0  0  0  0  0  0  0  0  0  0
    7.8234   -9.6007    0.0000 C   0  0  0  0  0  0  0  0  0  0  0  0
    7.1093   -9.1876    0.0000 N   0  0  0  0  0  0  0  0  0  0  0  0
    7.8228  -10.4256    0.0000 O   0  0  0  0  0  0  0  0  0  0  0  0
    6.3946   -9.5996    0.0000 C   0  0  0  0  0  0  0  0  0  0  0  0
    5.6448   -9.2658    0.0000 N   0  0  0  0  0  0  0  0  0  0  0  0
    5.0923   -9.8783    0.0000 C   0  0  0  0  0  0  0  0  0  0  0  0
    5.5042  -10.5931    0.0000 C   0  0  0  0  0  0  0  0  0  0  0  0
    6.3111  -10.4221    0.0000 S   0  0  0  0  0  0  0  0  0  0  0  0
    4.2751   -9.7911    0.0000 C   0  0  0  0  0  0  0  0  0  0  0  0
    3.9410   -9.0356    0.0000 C   0  0  0  0  0  0  0  0  0  0  0  0
    3.1215   -8.9485    0.0000 C   0  0  0  0  0  0  0  0  0  0  0  0
    2.6351   -9.6159    0.0000 C   0  0  0  0  0  0  0  0  0  0  0  0
    2.9743  -10.3726    0.0000 C   0  0  0  0  0  0  0  0  0  0  0  0
    3.7928  -10.4561    0.0000 C   0  0  0  0  0  0  0  0  0  0  0  0
    2.7869   -8.1945    0.0000 C   0  0  0  0  0  0  0  0  0  0  0  0
    1.8148   -9.5301    0.0000 C   0  0  0  0  0  0  0  0  0  0  0  0
  2  1  2  0
  3  2  2  0
  4  5  2  0
  5  6  1  0
  6  7  2  0
  7  8  1  0
  8  9  2  0
  9  4  1  0
  8  2  1  0
  2 10  1  0
 10 11  1  0
 10 15  1  0
 11 12  1  0
 12 13  1  0
 13 14  1  0
 14 15  1  0
  5 16  1  0
 16 17  1  0
 16 18  2  0
 17 19  1  0
 19 20  2  0
 20 21  1  0
 21 22  2  0
 22 23  1  0
 23 19  1  0
 24 25  2  0
 25 26  1  0
 26 27  2  0
 27 28  1  0
 28 29  2  0
 29 24  1  0
 21 24  1  0
 26 30  1  0
 27 31  1  0
M  END
>  <chembl_id>  (89) 
CHEMBL4845792

$$$$
CHEMBL4864971
     RDKit          2D

 43 48  0  0  0  0  0  0  0  0999 V2000
   14.6186  -11.4077    0.0000 C   0  0  0  0  0  0  0  0  0  0  0  0
   14.6186  -12.2249    0.0000 C   0  0  0  0  0  0  0  0  0  0  0  0
   15.3239  -12.6293    0.0000 C   0  0  0  0  0  0  0  0  0  0  0  0
   16.0292  -12.2249    0.0000 C   0  0  0  0  0  0  0  0  0  0  0  0
   16.0292  -11.4077    0.0000 C   0  0  0  0  0  0  0  0  0  0  0  0
   15.3239  -10.9949    0.0000 N   0  0  0  0  0  0  0  0  0  0  0  0
   13.9125  -12.6350    0.0000 C   0  0  0  0  0  0  0  0  0  0  0  0
   13.2039  -12.2257    0.0000 C   0  0  0  0  0  0  0  0  0  0  0  0
   12.4973  -12.6346    0.0000 C   0  0  0  0  0  0  0  0  0  0  0  0
   12.4980  -13.4527    0.0000 C   0  0  0  0  0  0  0  0  0  0  0  0
   13.2113  -13.8601    0.0000 C   0  0  0  0  0  0  0  0  0  0  0  0
   13.9150  -13.4488    0.0000 C   0  0  0  0  0  0  0  0  0  0  0  0
   16.7363  -12.6345    0.0000 C   0  0  0  0  0  0  0  0  0  0  0  0
   15.3239  -13.4465    0.0000 O   0  0  0  0  0  0  0  0  0  0  0  0
   16.7351  -13.4517    0.0000 O   0  0  0  0  0  0  0  0  0  0  0  0
   17.4446  -12.2269    0.0000 N   0  0  0  0  0  0  0  0  0  0  0  0
   18.1517  -12.6365    0.0000 C   0  0  0  0  0  0  0  0  0  0  0  0
   18.1476  -13.4517    0.0000 C   0  0  0  0  0  0  0  0  0  0  0  0
   18.8539  -13.8612    0.0000 C   0  0  0  0  0  0  0  0  0  0  0  0
   19.5632  -13.4536    0.0000 C   0  0  0  0  0  0  0  0  0  0  0  0
   19.5617  -12.6322    0.0000 C   0  0  0  0  0  0  0  0  0  0  0  0
   18.8549  -12.2264    0.0000 C   0  0  0  0  0  0  0  0  0  0  0  0
   20.2708  -13.8623    0.0000 C   0  0  0  0  0  0  0  0  0  0  0  0
   21.5628  -14.1352    0.0000 N   0  0  0  0  0  0  0  0  0  0  0  0
   21.0160  -13.5279    0.0000 C   0  0  0  0  0  0  0  0  0  0  0  0
   21.1541  -14.8429    0.0000 C   0  0  0  0  0  0  0  0  0  0  0  0
   20.3575  -14.6716    0.0000 C   0  0  0  0  0  0  0  0  0  0  0  0
   19.8128  -15.2751    0.0000 C   0  0  0  0  0  0  0  0  0  0  0  0
   20.0636  -16.0501    0.0000 N   0  0  0  0  0  0  0  0  0  0  0  0
   20.8640  -16.2182    0.0000 C   0  0  0  0  0  0  0  0  0  0  0  0
   21.4052  -15.6134    0.0000 N   0  0  0  0  0  0  0  0  0  0  0  0
   19.0137  -15.1042    0.0000 N   0  0  0  0  0  0  0  0  0  0  0  0
   15.3239  -10.1777    0.0000 C   0  0  0  0  0  0  0  0  0  0  0  0
   16.0316   -9.7692    0.0000 C   0  0  0  0  0  0  0  0  0  0  0  0
   16.7384  -10.1813    0.0000 C   0  0  0  0  0  0  0  0  0  0  0  0
   17.4440   -9.7762    0.0000 C   0  0  0  0  0  0  0  0  0  0  0  0
   17.4482   -8.9587    0.0000 O   0  0  0  0  0  0  0  0  0  0  0  0
   16.7406   -8.5479    0.0000 C   0  0  0  0  0  0  0  0  0  0  0  0
   16.0289   -8.9547    0.0000 C   0  0  0  0  0  0  0  0  0  0  0  0
   11.7914  -13.8632    0.0000 F   0  0  0  0  0  0  0  0  0  0  0  0
   22.3755  -14.0498    0.0000 C   0  0  0  0  0  0  0  0  0  0  0  0
   22.8558  -14.7109    0.0000 C   0  0  0  0  0  0  0  0  0  0  0  0
   23.6685  -14.6256    0.0000 C   0  0  0  0  0  0  0  0  0  0  0  0
  1  2  2  0
  1  6  1  0
  2  3  1  0
  3  4  1  0
  4  5  2  0
  5  6  1  0
  7  8  2  0
  8  9  1  0
  9 10  2  0
 10 11  1  0
 11 12  2  0
 12  7  1  0
  2  7  1  0
  4 13  1  0
  3 14  2  0
 13 15  2  0
 13 16  1  0
 16 17  1  0
 17 18  2  0
 18 19  1  0
 19 20  2  0
 20 21  1  0
 21 22  2  0
 22 17  1  0
 20 23  1  0
 23 27  1  0
 26 24  1  0
 24 25  1  0
 25 23  2  0
 26 27  2  0
 27 28  1  0
 28 29  2  0
 29 30  1  0
 30 31  2  0
 31 26  1  0
 28 32  1  0
  6 33  1  0
 33 34  1  0
 34 35  1  0
 34 39  1  0
 35 36  1  0
 36 37  1  0
 37 38  1  0
 38 39  1  0
 10 40  1  0
 24 41  1  0
 41 42  1  0
 42 43  1  0
M  END
>  <chembl_id>  (90) 
CHEMBL4864971

$$$$
CHEMBL4906941
     RDKit          2D

 17 17  0  0  0  0  0  0  0  0999 V2000
    0.0000   -0.0000   -0.0000 O   0  0  0  0  0  0  0  0  0  0  0  0
   -1.3077    0.7540   -0.0000 C   0  0  0  0  0  0  0  0  0  0  0  0
   -1.3195    2.2619   -0.0000 O   0  0  0  0  0  0  0  0  0  0  0  0
   -2.6153    0.0118   -0.0000 N   0  0  0  0  0  0  0  0  0  0  0  0
   -0.0353    3.0159   -0.0000 C   0  0  0  0  0  0  0  0  0  0  0  0
   -3.9230    0.7658   -0.0000 C   0  0  0  0  0  0  0  0  0  0  0  0
   -2.6271   -1.4726   -0.0000 C   0  0  0  0  0  0  0  0  0  0  0  0
    0.7069    1.7318   -0.0000 C   0  0  0  0  0  0  0  0  0  0  0  0
    1.2488    3.7699   -0.0000 C   0  0  0  0  0  0  0  0  0  0  0  0
   -0.7893    4.3236   -0.0000 C   0  0  0  0  0  0  0  0  0  0  0  0
   -5.2307    0.0236   -0.0000 C   0  0  0  0  0  0  0  0  0  0  0  0
   -3.9348   -2.2030   -0.0000 C   0  0  0  0  0  0  0  0  0  0  0  0
   -5.2425   -1.4608   -0.0000 C   0  0  0  0  0  0  0  0  0  0  0  0
   -6.5501   -2.2030   -0.0000 C   0  0  0  0  0  0  0  0  0  0  0  0
   -7.8578   -1.4490   -0.0000 C   0  0  0  0  0  0  0  0  0  0  0  0
   -7.8696    0.0589   -0.0000 O   0  0  0  0  0  0  0  0  0  0  0  0
   -9.1655   -2.1912   -0.0000 N   0  0  0  0  0  0  0  0  0  0  0  0
  1  2  2  0
  2  3  1  0
  2  4  1  0
  3  5  1  0
  4  6  1  0
  4  7  1  0
  5  8  1  0
  5  9  1  0
  5 10  1  0
  6 11  1  0
  7 12  1  0
 11 13  1  0
 13 14  1  0
 14 15  1  0
 15 16  2  0
 15 17  1  0
 12 13  1  0
M  END
>  <chembl_id>  (91) 
CHEMBL4906941

$$$$
CHEMBL4934928
     RDKit          2D

 25 27  0  0  1  0  0  0  0  0999 V2000
    0.0000   -0.0000   -0.0000 O   0  0  0  0  0  0  0  0  0  0  0  0
   -1.3063    0.7532   -0.0000 C   0  0  0  0  0  0  0  0  0  0  0  0
   -1.3180    2.2595   -0.0000 N   0  0  0  0  0  0  0  0  0  0  0  0
   -2.6125    0.0118   -0.0000 C   0  0  0  0  0  0  0  0  0  0  0  0
   -2.6243    3.0127   -0.0000 C   0  0  0  0  0  0  0  0  0  0  0  0
   -3.9188    0.7649   -0.0000 C   0  0  0  0  0  0  0  0  0  0  0  0
   -2.6243   -1.4710   -0.0000 C   0  0  0  0  0  0  0  0  0  0  0  0
   -2.6361    4.5190   -0.0000 C   0  0  0  0  0  0  0  0  0  0  0  0
   -3.9306    2.2713   -0.0000 C   0  0  0  0  0  0  0  0  0  0  0  0
   -5.2251    0.0235   -0.0000 C   0  0  0  0  0  0  0  0  0  0  0  0
   -3.9306   -2.2124   -0.0000 C   0  0  0  0  0  0  0  0  0  0  0  0
   -1.3533    5.2722   -0.0000 C   0  0  0  0  0  0  0  0  0  0  0  0
   -3.9423    5.2722   -0.0000 C   0  0  0  0  0  0  0  0  0  0  0  0
   -5.2368    3.0244   -0.0000 C   0  0  0  0  0  0  0  0  0  0  0  0
   -6.5314    0.7767   -0.0000 O   0  0  0  0  0  0  0  0  0  0  0  0
   -5.2368   -1.4593   -0.0000 C   0  0  0  0  0  0  0  0  0  0  0  0
   -0.0706    4.5308   -0.0000 C   0  0  0  0  0  0  0  0  0  0  0  0
   -1.3651    6.7785   -0.0000 C   0  0  0  0  0  0  0  0  0  0  0  0
   -5.2486    4.5308   -0.0000 C   0  0  0  0  0  0  0  0  0  0  0  0
   -7.8376    0.0353   -0.0000 C   0  0  0  0  0  0  0  0  0  0  0  0
    1.2121    5.2839   -0.0000 C   0  0  0  0  0  0  0  0  0  0  0  0
   -0.0824    7.5316   -0.0000 C   0  0  0  0  0  0  0  0  0  0  0  0
   -9.1439    0.7885   -0.0000 C   0  0  0  0  0  0  0  0  0  0  0  0
    1.2004    6.7903   -0.0000 C   0  0  0  0  0  0  0  0  0  0  0  0
  -10.4502    0.0471   -0.0000 N   0  0  0  0  0  0  0  0  0  0  0  0
  1  2  2  0
  2  3  1  0
  2  4  1  0
  5  3  1  1
  4  6  2  0
  4  7  1  0
  5  8  1  0
  5  9  1  0
  6 10  1  0
  7 11  2  0
  8 12  1  6
  8 13  1  0
  9 14  1  0
 10 15  1  0
 10 16  2  0
 12 17  2  0
 12 18  1  0
 13 19  1  0
 15 20  1  0
 17 21  1  0
 18 22  2  0
 20 23  1  0
 21 24  2  0
 23 25  1  0
 11 16  1  0
 14 19  1  0
 22 24  1  0
M  END
>  <chembl_id>  (92) 
CHEMBL4934928

$$$$
CHEMBL5078278
     RDKit          2D

 36 39  0  0  0  0  0  0  0  0999 V2000
   25.5775  -27.2601    0.0000 C   0  0  0  0  0  0  0  0  0  0  0  0
   25.8363  -28.0352    0.0000 N   0  0  0  0  0  0  0  0  0  0  0  0
   25.2913  -28.6409    0.0000 C   0  0  0  0  0  0  0  0  0  0  0  0
   25.5472  -29.4132    0.0000 C   0  0  0  0  0  0  0  0  0  0  0  0
   26.3474  -29.5809    0.0000 N   0  0  0  0  0  0  0  0  0  0  0  0
   26.8913  -28.9697    0.0000 C   0  0  0  0  0  0  0  0  0  0  0  0
   26.6351  -28.1910    0.0000 C   0  0  0  0  0  0  0  0  0  0  0  0
   26.6033  -30.3570    0.0000 C   0  0  0  0  0  0  0  0  0  0  0  0
   26.0591  -30.9666    0.0000 O   0  0  0  0  0  0  0  0  0  0  0  0
   27.4033  -30.5234    0.0000 C   0  0  0  0  0  0  0  0  0  0  0  0
   27.6592  -31.2995    0.0000 C   0  0  0  0  0  0  0  0  0  0  0  0
   20.8900  -22.1683    0.0000 N   0  0  0  0  0  0  0  0  0  0  0  0
   20.8962  -22.9831    0.0000 C   0  0  0  0  0  0  0  0  0  0  0  0
   21.6085  -23.3862    0.0000 C   0  0  0  0  0  0  0  0  0  0  0  0
   21.6168  -24.2045    0.0000 C   0  0  0  0  0  0  0  0  0  0  0  0
   22.3968  -24.4485    0.0000 N   0  0  0  0  0  0  0  0  0  0  0  0
   22.6554  -25.2229    0.0000 C   0  0  0  0  0  0  0  0  0  0  0  0
   22.8670  -23.7829    0.0000 N   0  0  0  0  0  0  0  0  0  0  0  0
   22.3829  -23.1276    0.0000 C   0  0  0  0  0  0  0  0  0  0  0  0
   22.6269  -22.3476    0.0000 C   0  0  0  0  0  0  0  0  0  0  0  0
   22.0777  -21.7446    0.0000 C   0  0  0  0  0  0  0  0  0  0  0  0
   22.3217  -20.9646    0.0000 C   0  0  0  0  0  0  0  0  0  0  0  0
   21.7689  -20.3637    0.0000 O   0  0  0  0  0  0  0  0  0  0  0  0
   21.9732  -19.5717    0.0000 C   0  0  0  0  0  0  0  0  0  0  0  0
   23.1184  -20.7855    0.0000 C   0  0  0  0  0  0  0  0  0  0  0  0
   23.6697  -21.3920    0.0000 C   0  0  0  0  0  0  0  0  0  0  0  0
   24.4699  -21.2108    0.0000 O   0  0  0  0  0  0  0  0  0  0  0  0
   24.6707  -20.4209    0.0000 C   0  0  0  0  0  0  0  0  0  0  0  0
   23.4236  -22.1685    0.0000 C   0  0  0  0  0  0  0  0  0  0  0  0
   20.9130  -24.6198    0.0000 N   0  0  0  0  0  0  0  0  0  0  0  0
   20.2008  -24.2166    0.0000 C   0  0  0  0  0  0  0  0  0  0  0  0
   20.1924  -23.3983    0.0000 N   0  0  0  0  0  0  0  0  0  0  0  0
   23.4561  -25.3863    0.0000 C   0  0  0  0  0  0  0  0  0  0  0  0
   23.7149  -26.1615    0.0000 C   0  0  0  0  0  0  0  0  0  0  0  0
   24.5156  -26.3249    0.0000 C   0  0  0  0  0  0  0  0  0  0  0  0
   24.7745  -27.1000    0.0000 C   0  0  0  0  0  0  0  0  0  0  0  0
  1  2  1  0
  2  3  1  0
  2  7  1  0
  3  4  1  0
  4  5  1  0
  5  6  1  0
  6  7  1  0
  5  8  1  0
  8  9  2  0
  8 10  1  0
 10 11  2  0
 12 13  1  0
 13 14  2  0
 14 15  1  0
 15 16  1  0
 16 17  1  0
 16 18  1  0
 18 19  2  0
 14 19  1  0
 19 20  1  0
 20 21  2  0
 21 22  1  0
 22 23  1  0
 23 24  1  0
 22 25  2  0
 25 26  1  0
 26 27  1  0
 27 28  1  0
 26 29  2  0
 20 29  1  0
 15 30  2  0
 30 31  1  0
 31 32  2  0
 13 32  1  0
 17 33  1  0
 33 34  1  0
 34 35  1  0
 35 36  1  0
 36  1  1  0
M  END
>  <chembl_id>  (93) 
CHEMBL5078278

$$$$
CHEMBL5182883
     RDKit          2D

 26 30  0  0  0  0  0  0  0  0999 V2000
   -2.9999    0.3249    0.0000 C   0  0  0  0  0  0  0  0  0  0  0  0
   -2.2853    0.7372    0.0000 C   0  0  0  0  0  0  0  0  0  0  0  0
   -1.5734    0.3252    0.0000 C   0  0  0  0  0  0  0  0  0  0  0  0
   -1.5734   -0.4998    0.0000 C   0  0  0  0  0  0  0  0  0  0  0  0
   -2.2835   -0.9116    0.0000 C   0  0  0  0  0  0  0  0  0  0  0  0
   -2.9999   -0.5035    0.0000 C   0  0  0  0  0  0  0  0  0  0  0  0
   -2.1114   -1.7142    0.0000 N   0  0  0  0  0  0  0  0  0  0  0  0
   -0.9624   -1.0479    0.0000 C   0  0  0  0  0  0  0  0  0  0  0  0
   -1.2949   -1.7984    0.0000 C   0  0  0  0  0  0  0  0  0  0  0  0
   -3.7106    0.7351    0.0000 Br  0  0  0  0  0  0  0  0  0  0  0  0
   -0.1698   -0.8355    0.0000 C   0  0  0  0  0  0  0  0  0  0  0  0
    0.1240   -0.0699    0.0000 C   0  0  0  0  0  0  0  0  0  0  0  0
    0.9431   -0.1128    0.0000 N   0  0  0  0  0  0  0  0  0  0  0  0
    1.1553   -0.9050    0.0000 C   0  0  0  0  0  0  0  0  0  0  0  0
    0.4674   -1.3517    0.0000 N   0  0  0  0  0  0  0  0  0  0  0  0
    1.9479   -1.1173    0.0000 C   0  0  0  0  0  0  0  0  0  0  0  0
    2.5281   -0.5371    0.0000 C   0  0  0  0  0  0  0  0  0  0  0  0
    2.1603   -1.9099    0.0000 O   0  0  0  0  0  0  0  0  0  0  0  0
    2.3998    0.2728    0.0000 C   0  0  0  0  0  0  0  0  0  0  0  0
    3.1306    0.6452    0.0000 C   0  0  0  0  0  0  0  0  0  0  0  0
    3.7106    0.0653    0.0000 N   0  0  0  0  0  0  0  0  0  0  0  0
    3.3382   -0.6654    0.0000 C   0  0  0  0  0  0  0  0  0  0  0  0
    1.7144    0.7185    0.0000 C   0  0  0  0  0  0  0  0  0  0  0  0
    1.7571    1.5378    0.0000 C   0  0  0  0  0  0  0  0  0  0  0  0
    2.4833    1.9099    0.0000 C   0  0  0  0  0  0  0  0  0  0  0  0
    3.1735    1.4678    0.0000 C   0  0  0  0  0  0  0  0  0  0  0  0
  2  1  2  0
  3  2  1  0
  4  3  2  0
  5  4  1  0
  1  6  1  0
  6  5  2  0
  5  7  1  0
  4  8  1  0
  8  9  2  0
  9  7  1  0
  1 10  1  0
 11  8  1  1
 12 11  1  0
 12 13  1  0
 13 14  1  0
 14 15  2  0
 15 11  1  0
 14 16  1  0
 16 17  1  0
 16 18  2  0
 19 17  1  0
 19 20  2  0
 20 21  1  0
 21 22  1  0
 22 17  2  0
 19 23  1  0
 24 23  2  0
 25 24  1  0
 26 25  2  0
 20 26  1  0
M  END
>  <chembl_id>  (94) 
CHEMBL5182883

$$$$
CHEMBL5189293
     RDKit          2D

 34 37  0  0  0  0  0  0  0  0999 V2000
   -1.1235    0.6351    0.0000 O   0  0  0  0  0  0  0  0  0  0  0  0
   -1.1235   -0.1898    0.0000 C   0  0  0  0  0  0  0  0  0  0  0  0
   -0.4089   -0.6024    0.0000 C   0  0  0  0  0  0  0  0  0  0  0  0
    0.3054   -0.1898    0.0000 S   0  0  0  0  0  0  0  0  0  0  0  0
    1.0201   -0.6024    0.0000 C   0  0  0  0  0  0  0  0  0  0  0  0
    1.1985   -1.4032    0.0000 N   0  0  0  0  0  0  0  0  0  0  0  0
    2.0227   -1.4955    0.0000 N   0  0  0  0  0  0  0  0  0  0  0  0
    2.3533   -0.7611    0.0000 C   0  0  0  0  0  0  0  0  0  0  0  0
    3.1503   -0.5475    0.0000 C   0  0  0  0  0  0  0  0  0  0  0  0
    3.7363   -1.1335    0.0000 C   0  0  0  0  0  0  0  0  0  0  0  0
    4.5316   -0.9155    0.0000 C   0  0  0  0  0  0  0  0  0  0  0  0
    4.7425   -0.1220    0.0000 C   0  0  0  0  0  0  0  0  0  0  0  0
    4.1590    0.4614    0.0000 C   0  0  0  0  0  0  0  0  0  0  0  0
    3.3641    0.2493    0.0000 C   0  0  0  0  0  0  0  0  0  0  0  0
    4.3726    1.2585    0.0000 O   0  0  0  0  0  0  0  0  0  0  0  0
    3.7891    1.8419    0.0000 C   0  0  0  0  0  0  0  0  0  0  0  0
    5.5396    0.0914    0.0000 O   0  0  0  0  0  0  0  0  0  0  0  0
    6.1231   -0.4919    0.0000 C   0  0  0  0  0  0  0  0  0  0  0  0
    5.1151   -1.4989    0.0000 O   0  0  0  0  0  0  0  0  0  0  0  0
    5.9121   -1.2854    0.0000 C   0  0  0  0  0  0  0  0  0  0  0  0
    1.7346   -0.1899    0.0000 O   0  0  0  0  0  0  0  0  0  0  0  0
   -1.8382   -0.6024    0.0000 N   0  0  0  0  0  0  0  0  0  0  0  0
   -2.5527   -0.1898    0.0000 C   0  0  0  0  0  0  0  0  0  0  0  0
   -3.2627   -0.6015    0.0000 N   0  0  0  0  0  0  0  0  0  0  0  0
   -3.9791   -0.1935    0.0000 C   0  0  0  0  0  0  0  0  0  0  0  0
   -4.6936   -0.6061    0.0000 C   0  0  0  0  0  0  0  0  0  0  0  0
   -5.4113   -0.1917    0.0000 C   0  0  0  0  0  0  0  0  0  0  0  0
   -6.1231   -0.6082    0.0000 C   0  0  0  0  0  0  0  0  0  0  0  0
   -6.1231   -1.4292    0.0000 C   0  0  0  0  0  0  0  0  0  0  0  0
   -5.4067   -1.8419    0.0000 C   0  0  0  0  0  0  0  0  0  0  0  0
   -4.6936   -1.4312    0.0000 C   0  0  0  0  0  0  0  0  0  0  0  0
   -3.9791    0.6347    0.0000 C   0  0  0  0  0  0  0  0  0  0  0  0
   -3.2645    1.0470    0.0000 C   0  0  0  0  0  0  0  0  0  0  0  0
   -2.5527    0.6351    0.0000 N   0  0  0  0  0  0  0  0  0  0  0  0
  2  1  2  0
  2  3  1  0
  3  4  1  0
  4  5  1  0
  5  6  2  0
  6  7  1  0
  8  7  2  0
  9  8  1  0
  9 10  2  0
 10 11  1  0
 11 12  2  0
 12 13  1  0
 13 14  2  0
 14  9  1  0
 13 15  1  0
 15 16  1  0
 12 17  1  0
 17 18  1  0
 11 19  1  0
 19 20  1  0
 21  8  1  0
 21  5  1  0
 22  2  1  0
 23 22  1  0
 24 23  2  0
 25 24  1  0
 26 25  1  0
 26 27  2  0
 27 28  1  0
 28 29  2  0
 29 30  1  0
 30 31  2  0
 31 26  1  0
 32 25  2  0
 33 32  1  0
 34 33  2  0
 23 34  1  0
M  END
>  <chembl_id>  (95) 
CHEMBL5189293

$$$$
CHEMBL5209266
     RDKit          2D

143145  0  0  1  0  0  0  0  0999 V2000
   -2.4476    6.4234    0.0000 C   0  0  0  0  0  0  0  0  0  0  0  0
   -3.1550    5.9989    0.0000 N   0  0  0  0  0  0  0  0  0  0  0  0
   -3.1550    5.2066    0.0000 C   0  0  0  0  0  0  0  0  0  0  0  0
   -3.8341    4.8105    0.0000 C   0  0  0  0  0  0  0  0  0  0  0  0
   -3.8341    4.0181    0.0000 C   0  0  0  0  0  0  0  0  0  0  0  0
   -3.1550    3.5937    0.0000 O   0  0  0  0  0  0  0  0  0  0  0  0
   -4.5416    3.5937    0.0000 N   0  0  0  0  0  0  0  0  0  0  0  0
   -4.5416    2.8014    0.0000 C   0  0  0  0  0  0  0  0  0  0  0  0
   -5.2490    2.4052    0.0000 C   0  0  0  0  0  0  0  0  0  0  0  0
   -5.9281    2.8014    0.0000 O   0  0  0  0  0  0  0  0  0  0  0  0
   -5.2490    1.5846    0.0000 N   0  0  0  0  0  0  0  0  0  0  0  0
   -5.9281    1.1885    0.0000 C   0  0  0  0  0  0  0  0  0  0  0  0
   -5.9281    0.3961    0.0000 C   0  0  0  0  0  0  0  0  0  0  0  0
   -6.6356    0.0000    0.0000 N   0  0  0  0  0  0  0  0  0  0  0  0
   -6.6356   -0.8206    0.0000 C   0  0  0  0  0  0  0  0  0  0  0  0
   -7.3147   -1.2167    0.0000 C   0  0  0  0  0  0  0  0  0  0  0  0
   -5.9281   -1.2167    0.0000 C   0  0  0  0  0  0  0  0  0  0  0  0
   -5.9281   -2.0090    0.0000 N   0  0  0  0  0  0  0  0  0  0  0  0
   -5.2490   -2.4052    0.0000 C   0  0  0  0  0  0  0  0  0  0  0  0
   -4.5416   -2.0090    0.0000 C   0  0  0  0  0  0  0  0  0  0  0  0
   -4.5416   -1.2167    0.0000 C   0  0  0  0  0  0  0  0  0  0  0  0
   -3.8341   -0.8206    0.0000 C   0  0  0  0  0  0  0  0  0  0  0  0
   -3.1550   -1.2167    0.0000 C   0  0  0  0  0  0  0  0  0  0  0  0
   -3.1550   -2.0090    0.0000 C   0  0  0  0  0  0  0  0  0  0  0  0
   -3.8341   -2.4052    0.0000 C   0  0  0  0  0  0  0  0  0  0  0  0
   -3.8341   -3.2258    0.0000 C   0  0  0  0  0  0  0  0  0  0  0  0
   -4.5416   -3.6219    0.0000 C   0  0  0  0  0  0  0  0  0  0  0  0
   -4.5416   -4.4142    0.0000 C   0  0  0  0  0  0  0  0  0  0  0  0
   -5.2490   -4.8104    0.0000 N   0  0  0  0  0  0  0  0  0  0  0  0
   -5.2490   -5.6310    0.0000 C   0  0  0  0  0  0  0  0  0  0  0  0
   -5.9281   -6.0272    0.0000 C   0  0  0  0  0  0  0  0  0  0  0  0
   -6.6356   -5.6310    0.0000 N   0  0  0  0  0  0  0  0  0  0  0  0
   -7.4278   -5.7442    0.0000 C   0  0  0  0  0  0  0  0  0  0  0  0
   -7.8240   -5.0368    0.0000 C   0  0  0  0  0  0  0  0  0  0  0  0
   -7.3147   -4.4142    0.0000 N   0  0  0  0  0  0  0  0  0  0  0  0
   -7.3147   -3.6219    0.0000 C   0  0  0  0  0  0  0  0  0  0  0  0
   -6.6356   -3.2258    0.0000 C   0  0  0  0  0  0  0  0  0  0  0  0
   -5.9281   -3.6219    0.0000 N   0  0  0  0  0  0  0  0  0  0  0  0
   -5.2490   -3.2258    0.0000 C   0  0  0  0  0  0  0  0  0  0  0  0
   -4.6901   -3.4946    0.0000 O   0  0  0  0  0  0  0  0  0  0  0  0
   -6.6356   -2.4052    0.0000 C   0  0  0  0  0  0  0  0  0  0  0  0
   -7.3147   -2.0090    0.0000 C   0  0  0  0  0  0  0  0  0  0  0  0
   -8.0221   -2.4052    0.0000 C   0  0  0  0  0  0  0  0  0  0  0  0
   -8.7012   -2.0090    0.0000 N   0  0  0  0  0  0  0  0  0  0  0  0
   -9.4087   -2.4052    0.0000 C   0  0  0  0  0  0  0  0  0  0  0  0
   -9.4087   -3.2258    0.0000 N   0  0  0  0  0  0  0  0  0  0  0  0
  -10.0878   -2.0090    0.0000 N   0  0  0  0  0  0  0  0  0  0  0  0
   -8.0221   -3.2258    0.0000 O   0  0  0  0  0  0  0  0  0  0  0  0
   -8.6163   -5.0368    0.0000 C   0  0  0  0  0  0  0  0  0  0  0  0
   -9.0408   -4.3577    0.0000 C   0  0  0  0  0  0  0  0  0  0  0  0
   -9.8331   -4.3577    0.0000 C   0  0  0  0  0  0  0  0  0  0  0  0
  -10.2292   -5.0368    0.0000 N   0  0  0  0  0  0  0  0  0  0  0  0
  -11.0216   -5.0368    0.0000 C   0  0  0  0  0  0  0  0  0  0  0  0
  -11.4460   -4.3577    0.0000 N   0  0  0  0  0  0  0  0  0  0  0  0
  -11.4460   -5.7442    0.0000 N   0  0  0  0  0  0  0  0  0  0  0  0
   -7.8240   -6.4233    0.0000 O   0  0  0  0  0  0  0  0  0  0  0  0
   -5.9281   -6.8194    0.0000 C   0  0  0  0  0  0  0  0  0  0  0  0
   -5.2490   -7.2157    0.0000 C   0  0  0  0  0  0  0  0  0  0  0  0
   -6.6356   -7.2157    0.0000 O   0  0  0  0  0  0  0  0  0  0  0  0
   -4.5416   -6.0272    0.0000 O   0  0  0  0  0  0  0  0  0  0  0  0
   -3.8341   -4.8104    0.0000 C   0  0  0  0  0  0  0  0  0  0  0  0
   -3.1550   -4.4142    0.0000 N   0  0  0  0  0  0  0  0  0  0  0  0
   -2.4476   -4.8104    0.0000 C   0  0  0  0  0  0  0  0  0  0  0  0
   -1.7685   -4.4142    0.0000 C   0  0  0  0  0  0  0  0  0  0  0  0
   -1.7685   -3.6219    0.0000 O   0  0  0  0  0  0  0  0  0  0  0  0
   -1.0611   -4.8104    0.0000 N   0  0  0  0  0  0  0  0  0  0  0  0
   -0.3820   -4.4142    0.0000 C   0  0  0  0  0  0  0  0  0  0  0  0
    0.3254   -4.8104    0.0000 C   0  0  0  0  0  0  0  0  0  0  0  0
    1.0045   -4.4142    0.0000 N   0  0  0  0  0  0  0  0  0  0  0  0
    1.7119   -4.8104    0.0000 C   0  0  0  0  0  0  0  0  0  0  0  0
    2.4193   -4.4142    0.0000 C   0  0  0  0  0  0  0  0  0  0  0  0
    2.4193   -3.6219    0.0000 O   0  0  0  0  0  0  0  0  0  0  0  0
    3.0984   -4.8104    0.0000 N   0  0  0  0  0  0  0  0  0  0  0  0
    3.8059   -4.4142    0.0000 C   0  0  0  0  0  0  0  0  0  0  0  0
    4.4850   -4.8104    0.0000 C   0  0  0  0  0  0  0  0  0  0  0  0
    5.1924   -4.4142    0.0000 N   0  0  0  0  0  0  0  0  0  0  0  0
    5.8716   -4.8104    0.0000 C   0  0  0  0  0  0  0  0  0  0  0  0
    6.5790   -4.4142    0.0000 C   0  0  0  0  0  0  0  0  0  0  0  0
    6.5790   -3.6219    0.0000 O   0  0  0  0  0  0  0  0  0  0  0  0
    7.2581   -4.8104    0.0000 N   0  0  0  0  0  0  0  0  0  0  0  0
    7.9655   -4.4142    0.0000 C   0  0  0  0  0  0  0  0  0  0  0  0
    8.6447   -4.8104    0.0000 C   0  0  0  0  0  0  0  0  0  0  0  0
    9.3521   -4.4142    0.0000 N   0  0  0  0  0  0  0  0  0  0  0  0
   10.0595   -4.8104    0.0000 C   0  0  0  0  0  0  0  0  0  0  0  0
   10.7386   -4.4142    0.0000 C   0  0  0  0  0  0  0  0  0  0  0  0
   10.7386   -3.6219    0.0000 O   0  0  0  0  0  0  0  0  0  0  0  0
   11.4460   -4.8104    0.0000 N   0  0  0  0  0  0  0  0  0  0  0  0
   10.0595   -5.6310    0.0000 C   0  0  0  0  0  0  0  0  0  0  0  0
   10.7386   -6.0272    0.0000 C   0  0  0  0  0  0  0  0  0  0  0  0
   10.7386   -6.8194    0.0000 C   0  0  0  0  0  0  0  0  0  0  0  0
   11.4460   -5.6310    0.0000 C   0  0  0  0  0  0  0  0  0  0  0  0
    8.6447   -5.6310    0.0000 O   0  0  0  0  0  0  0  0  0  0  0  0
    7.9655   -3.6219    0.0000 C   0  0  0  0  0  0  0  0  0  0  0  0
    8.6447   -3.2258    0.0000 C   0  0  0  0  0  0  0  0  0  0  0  0
    8.6447   -2.4052    0.0000 C   0  0  0  0  0  0  0  0  0  0  0  0
    7.9655   -2.0090    0.0000 C   0  0  0  0  0  0  0  0  0  0  0  0
    5.8716   -5.6310    0.0000 C   0  0  0  0  0  0  0  0  0  0  0  0
    6.5790   -6.0272    0.0000 C   0  0  0  0  0  0  0  0  0  0  0  0
    6.5790   -6.8194    0.0000 C   0  0  0  0  0  0  0  0  0  0  0  0
    7.2581   -7.2157    0.0000 O   0  0  0  0  0  0  0  0  0  0  0  0
    5.8716   -7.2157    0.0000 O   0  0  0  0  0  0  0  0  0  0  0  0
    4.4850   -5.6310    0.0000 O   0  0  0  0  0  0  0  0  0  0  0  0
    3.8059   -3.6219    0.0000 C   0  0  0  0  0  0  0  0  0  0  0  0
    4.4850   -3.2258    0.0000 C   0  0  0  0  0  0  0  0  0  0  0  0
    4.4850   -2.4052    0.0000 C   0  0  0  0  0  0  0  0  0  0  0  0
    3.8059   -2.0090    0.0000 N   0  0  0  0  0  0  0  0  0  0  0  0
    3.8059   -1.2167    0.0000 C   0  0  0  0  0  0  0  0  0  0  0  0
    3.0984   -0.8206    0.0000 N   0  0  0  0  0  0  0  0  0  0  0  0
    4.4850   -0.8206    0.0000 N   0  0  0  0  0  0  0  0  0  0  0  0
    1.7119   -5.6310    0.0000 C   0  0  0  0  0  0  0  0  0  0  0  0
    2.4193   -6.0272    0.0000 C   0  0  0  0  0  0  0  0  0  0  0  0
    3.0984   -5.6310    0.0000 C   0  0  0  0  0  0  0  0  0  0  0  0
    3.8059   -6.0272    0.0000 C   0  0  0  0  0  0  0  0  0  0  0  0
    3.8059   -6.8194    0.0000 C   0  0  0  0  0  0  0  0  0  0  0  0
    3.0984   -7.2157    0.0000 C   0  0  0  0  0  0  0  0  0  0  0  0
    2.4193   -6.8194    0.0000 C   0  0  0  0  0  0  0  0  0  0  0  0
    4.4850   -7.2157    0.0000 O   0  0  0  0  0  0  0  0  0  0  0  0
    0.3254   -5.6310    0.0000 O   0  0  0  0  0  0  0  0  0  0  0  0
   -0.3820   -3.6219    0.0000 C   0  0  0  0  0  0  0  0  0  0  0  0
    0.3254   -3.2258    0.0000 C   0  0  0  0  0  0  0  0  0  0  0  0
    0.3254   -2.4052    0.0000 C   0  0  0  0  0  0  0  0  0  0  0  0
   -0.3820   -2.0090    0.0000 C   0  0  0  0  0  0  0  0  0  0  0  0
   -0.3820   -1.2167    0.0000 N   0  0  0  0  0  0  0  0  0  0  0  0
   -2.4476   -5.6310    0.0000 C   0  0  0  0  0  0  0  0  0  0  0  0
   -3.8341   -5.6310    0.0000 O   0  0  0  0  0  0  0  0  0  0  0  0
   -4.5416   -5.2348    0.0000 C   0  0  0  0  0  0  0  0  0  0  0  0
   -5.2490   -1.6128    0.0000 C   0  0  0  0  0  0  0  0  0  0  0  0
   -5.2490   -0.8206    0.0000 O   0  0  0  0  0  0  0  0  0  0  0  0
   -5.2490    0.0000    0.0000 O   0  0  0  0  0  0  0  0  0  0  0  0
   -6.6356    1.5846    0.0000 C   0  0  0  0  0  0  0  0  0  0  0  0
   -6.6356    2.4052    0.0000 C   0  0  0  0  0  0  0  0  0  0  0  0
   -7.3147    2.8014    0.0000 C   0  0  0  0  0  0  0  0  0  0  0  0
   -8.0221    2.4052    0.0000 C   0  0  0  0  0  0  0  0  0  0  0  0
   -8.7012    2.8014    0.0000 N   0  0  0  0  0  0  0  0  0  0  0  0
   -3.8341    2.4052    0.0000 C   0  0  0  0  0  0  0  0  0  0  0  0
   -3.8341    1.5846    0.0000 C   0  0  0  0  0  0  0  0  0  0  0  0
   -3.1550    1.1885    0.0000 C   0  0  0  0  0  0  0  0  0  0  0  0
   -3.1550    0.3961    0.0000 C   0  0  0  0  0  0  0  0  0  0  0  0
   -3.8341    0.0000    0.0000 C   0  0  0  0  0  0  0  0  0  0  0  0
   -4.5416    0.3961    0.0000 C   0  0  0  0  0  0  0  0  0  0  0  0
   -4.5416    1.1885    0.0000 C   0  0  0  0  0  0  0  0  0  0  0  0
   -1.7685    5.9989    0.0000 O   0  0  0  0  0  0  0  0  0  0  0  0
   -2.4476    7.2157    0.0000 C   0  0  0  0  0  0  0  0  0  0  0  0
  1  2  1  0
  2  3  1  0
  3  4  1  0
  4  5  1  0
  5  6  2  0
  5  7  1  0
  7  8  1  0
  8  9  1  0
  9 10  2  0
  9 11  1  0
 11 12  1  0
 12 13  1  0
 13 14  1  0
 14 15  1  0
 15 16  1  6
 15 17  1  0
 17 18  1  0
 18 19  1  0
 19 20  1  0
 20 21  1  0
 21 22  1  0
 22 23  1  0
 23 24  2  0
 24 25  1  0
 25 26  1  0
 26 27  1  0
 27 28  1  0
 28 29  1  0
 29 30  1  0
 30 31  1  0
 31 32  1  6
 32 33  1  0
 33 34  1  0
 34 35  1  0
 35 36  1  0
 36 37  1  0
 37 38  1  0
 38 39  1  0
 19 39  1  0
 39 40  2  0
 37 41  1  6
 41 42  1  0
 42 43  1  0
 43 44  1  0
 44 45  1  0
 45 46  2  0
 45 47  1  0
 36 48  2  0
 34 49  1  6
 49 50  1  0
 50 51  1  0
 51 52  1  0
 52 53  1  0
 53 54  2  0
 53 55  1  0
 33 56  2  0
 31 57  1  0
 57 58  1  1
 57 59  1  0
 30 60  2  0
 28 61  1  0
 61 62  1  0
 62 63  1  0
 63 64  1  0
 64 65  2  0
 64 66  1  0
 66 67  1  0
 67 68  1  0
 68 69  1  0
 69 70  1  0
 70 71  1  0
 71 72  2  0
 71 73  1  0
 73 74  1  0
 74 75  1  0
 75 76  1  0
 76 77  1  0
 77 78  1  0
 78 79  2  0
 78 80  1  0
 80 81  1  0
 81 82  1  0
 82 83  1  0
 83 84  1  0
 84 85  1  0
 85 86  2  0
 85 87  1  0
 84 88  1  6
 88 89  1  0
 89 90  1  0
 89 91  1  0
 82 92  2  0
 81 93  1  1
 93 94  1  0
 94 95  1  0
 95 96  1  0
 77 97  1  6
 97 98  1  0
 98 99  1  0
 99100  1  0
 99101  2  0
 75102  2  0
 74103  1  1
103104  1  0
104105  1  0
105106  1  0
106107  1  0
107108  2  0
107109  1  0
 70110  1  6
110111  1  0
111112  2  0
112113  1  0
113114  2  0
114115  1  0
115116  2  0
111116  1  0
114117  1  0
 68118  2  0
 67119  1  1
119120  1  0
120121  1  0
121122  1  0
122123  1  0
 63124  1  6
 61125  2  0
 28126  1  6
 19127  1  6
 17128  2  0
 13129  2  0
 12130  1  6
130131  1  0
131132  1  0
132133  1  0
133134  1  0
  8135  1  1
135136  1  0
136137  2  0
137138  1  0
138139  2  0
139140  1  0
140141  2  0
136141  1  0
  1142  2  0
  1143  1  0
M  END
>  <chembl_id>  (96) 
CHEMBL5209266

$$$$
CHEMBL5271582
     RDKit          2D

 29 33  0  0  0  0  0  0  0  0999 V2000
    0.7738    1.4221    0.0000 O   0  0  0  0  0  0  0  0  0  0  0  0
    0.0627    1.0039    0.0000 C   0  0  0  0  0  0  0  0  0  0  0  0
   -0.6483    1.4221    0.0000 N   0  0  0  0  0  0  0  0  0  0  0  0
   -0.6483    2.2588    0.0000 C   0  0  0  0  0  0  0  0  0  0  0  0
   -1.3595    2.6772    0.0000 C   0  0  0  0  0  0  0  0  0  0  0  0
   -1.3595    3.4720    0.0000 C   0  0  0  0  0  0  0  0  0  0  0  0
   -0.6483    3.8902    0.0000 C   0  0  0  0  0  0  0  0  0  0  0  0
    0.0627    3.4720    0.0000 N   0  0  0  0  0  0  0  0  0  0  0  0
    0.0627    2.6772    0.0000 C   0  0  0  0  0  0  0  0  0  0  0  0
   -2.0706    2.2588    0.0000 N   0  0  0  0  0  0  0  0  0  0  0  0
   -2.0706    1.4221    0.0000 C   0  0  0  0  0  0  0  0  0  0  0  0
   -2.7817    1.0039    0.0000 C   0  0  0  0  0  0  0  0  0  0  0  0
   -3.5346    1.4221    0.0000 O   0  0  0  0  0  0  0  0  0  0  0  0
   -3.5346    2.2588    0.0000 C   0  0  0  0  0  0  0  0  0  0  0  0
   -2.7817    2.6772    0.0000 C   0  0  0  0  0  0  0  0  0  0  0  0
    0.0627    0.1673    0.0000 C   0  0  0  0  0  0  0  0  0  0  0  0
   -0.6483   -0.2509    0.0000 C   0  0  0  0  0  0  0  0  0  0  0  0
   -0.6483   -1.0457    0.0000 C   0  0  0  0  0  0  0  0  0  0  0  0
    0.0627   -1.4640    0.0000 N   0  0  0  0  0  0  0  0  0  0  0  0
    0.7738   -1.0457    0.0000 N   0  0  0  0  0  0  0  0  0  0  0  0
    1.5686   -1.3385    0.0000 C   0  0  0  0  0  0  0  0  0  0  0  0
    1.8195   -2.0915    0.0000 N   0  0  0  0  0  0  0  0  0  0  0  0
    2.6562   -2.3007    0.0000 C   0  0  0  0  0  0  0  0  0  0  0  0
    2.9072   -3.0536    0.0000 C   0  0  0  0  0  0  0  0  0  0  0  0
    3.5346   -3.6393    0.0000 C   0  0  0  0  0  0  0  0  0  0  0  0
    2.7399   -3.8902    0.0000 C   0  0  0  0  0  0  0  0  0  0  0  0
    2.0705   -0.6692    0.0000 C   0  0  0  0  0  0  0  0  0  0  0  0
    1.5686    0.0000    0.0000 N   0  0  0  0  0  0  0  0  0  0  0  0
    0.7738   -0.2509    0.0000 C   0  0  0  0  0  0  0  0  0  0  0  0
  1  2  2  0
  2  3  1  0
  3  4  1  0
  4  5  1  0
  5  6  2  0
  6  7  1  0
  7  8  2  0
  8  9  1  0
  4  9  2  0
  5 10  1  0
 10 11  1  0
 11 12  1  0
 12 13  1  0
 13 14  1  0
 14 15  1  0
 10 15  1  0
  2 16  1  0
 16 17  2  0
 17 18  1  0
 18 19  2  0
 19 20  1  0
 20 21  1  0
 21 22  1  0
 22 23  1  0
 23 24  1  0
 24 25  1  0
 25 26  1  0
 24 26  1  0
 21 27  2  0
 27 28  1  0
 28 29  2  0
 16 29  1  0
 20 29  1  0
M  END
>  <chembl_id>  (97) 
CHEMBL5271582

$$$$
CHEMBL5273565
     RDKit          2D

 31 33  0  0  0  0  0  0  0  0999 V2000
    3.5764    0.9168    0.0000 C   0  0  0  0  0  0  0  0  0  0  0  0
    3.1639    0.2024    0.0000 C   0  0  0  0  0  0  0  0  0  0  0  0
    3.9889    0.2024    0.0000 C   0  0  0  0  0  0  0  0  0  0  0  0
    2.7513    0.9168    0.0000 C   0  0  0  0  0  0  0  0  0  0  0  0
    2.7513   -0.5121    0.0000 C   0  0  0  0  0  0  0  0  0  0  0  0
    3.1640   -1.2268    0.0000 C   0  0  0  0  0  0  0  0  0  0  0  0
    2.7549   -1.9386    0.0000 C   0  0  0  0  0  0  0  0  0  0  0  0
    1.9303   -1.9386    0.0000 C   0  0  0  0  0  0  0  0  0  0  0  0
    1.5160   -1.2258    0.0000 C   0  0  0  0  0  0  0  0  0  0  0  0
    1.9288   -0.5121    0.0000 C   0  0  0  0  0  0  0  0  0  0  0  0
    0.6910   -1.2258    0.0000 N   0  0  0  0  0  0  0  0  0  0  0  0
    0.2784   -0.5112    0.0000 C   0  0  0  0  0  0  0  0  0  0  0  0
    0.6910    0.2032    0.0000 O   0  0  0  0  0  0  0  0  0  0  0  0
   -0.5465   -0.5112    0.0000 C   0  0  0  0  0  0  0  0  0  0  0  0
   -0.9588   -1.2254    0.0000 N   0  0  0  0  0  0  0  0  0  0  0  0
   -1.7655   -1.0539    0.0000 N   0  0  0  0  0  0  0  0  0  0  0  0
   -1.8517   -0.2338    0.0000 N   0  0  0  0  0  0  0  0  0  0  0  0
   -1.0984    0.1015    0.0000 C   0  0  0  0  0  0  0  0  0  0  0  0
   -0.8848    0.8985    0.0000 C   0  0  0  0  0  0  0  0  0  0  0  0
   -2.5662    0.1786    0.0000 C   0  0  0  0  0  0  0  0  0  0  0  0
   -3.2762   -0.2330    0.0000 C   0  0  0  0  0  0  0  0  0  0  0  0
   -3.2762   -1.0580    0.0000 O   0  0  0  0  0  0  0  0  0  0  0  0
   -2.5617   -1.4705    0.0000 C   0  0  0  0  0  0  0  0  0  0  0  0
   -3.9925    0.1749    0.0000 C   0  0  0  0  0  0  0  0  0  0  0  0
   -3.9925    1.0033    0.0000 C   0  0  0  0  0  0  0  0  0  0  0  0
   -3.2779    1.4155    0.0000 C   0  0  0  0  0  0  0  0  0  0  0  0
   -3.2779    2.2405    0.0000 O   0  0  0  0  0  0  0  0  0  0  0  0
   -3.9925    2.6531    0.0000 C   0  0  0  0  0  0  0  0  0  0  0  0
   -2.5662    1.0037    0.0000 C   0  0  0  0  0  0  0  0  0  0  0  0
    3.1674   -2.6531    0.0000 N   0  0  0  0  0  0  0  0  0  0  0  0
    3.9925   -2.6531    0.0000 C   0  0  0  0  0  0  0  0  0  0  0  0
  2  1  1  0
  2  3  1  0
  2  4  1  0
  5  2  1  0
  6  5  2  0
  7  6  1  0
  8  7  2  0
  9  8  1  0
  5 10  1  0
 10  9  2  0
 11  9  1  0
 12 11  1  0
 12 13  2  0
 14 12  1  0
 14 15  1  0
 15 16  2  0
 16 17  1  0
 18 14  2  0
 17 18  1  0
 18 19  1  0
 17 20  1  0
 21 20  2  0
 21 22  1  0
 22 23  1  0
 24 21  1  0
 25 24  2  0
 26 25  1  0
 26 27  1  0
 27 28  1  0
 20 29  1  0
 29 26  2  0
  7 30  1  0
 30 31  1  0
M  END
>  <chembl_id>  (98) 
CHEMBL5273565

$$$$
CHEMBL5278367
     RDKit          2D

 27 30  0  0  0  0  0  0  0  0999 V2000
    0.6681    0.7389    0.0000 C   0  0  0  0  0  0  0  0  0  0  0  0
    1.3826    1.1512    0.0000 C   0  0  0  0  0  0  0  0  0  0  0  0
    2.0945    0.7393    0.0000 C   0  0  0  0  0  0  0  0  0  0  0  0
    2.0945   -0.0858    0.0000 C   0  0  0  0  0  0  0  0  0  0  0  0
    1.3845   -0.4976    0.0000 C   0  0  0  0  0  0  0  0  0  0  0  0
    0.6681   -0.0895    0.0000 C   0  0  0  0  0  0  0  0  0  0  0  0
   -0.0434   -0.5058    0.0000 O   0  0  0  0  0  0  0  0  0  0  0  0
   -0.0387   -1.3303    0.0000 C   0  0  0  0  0  0  0  0  0  0  0  0
    0.6776   -1.7384    0.0000 C   0  0  0  0  0  0  0  0  0  0  0  0
    1.3892   -1.3220    0.0000 C   0  0  0  0  0  0  0  0  0  0  0  0
   -0.8654   -1.3303    0.0000 C   0  0  0  0  0  0  0  0  0  0  0  0
   -0.4529   -2.0448    0.0000 C   0  0  0  0  0  0  0  0  0  0  0  0
    2.8092   -0.4983    0.0000 O   0  0  0  0  0  0  0  0  0  0  0  0
    3.5238   -0.0858    0.0000 C   0  0  0  0  0  0  0  0  0  0  0  0
    3.5238    0.7393    0.0000 C   0  0  0  0  0  0  0  0  0  0  0  0
    2.8092    1.1519    0.0000 C   0  0  0  0  0  0  0  0  0  0  0  0
    4.2384   -0.4984    0.0000 O   0  0  0  0  0  0  0  0  0  0  0  0
   -0.0465    1.1515    0.0000 O   0  0  0  0  0  0  0  0  0  0  0  0
   -0.7612    0.7389    0.0000 C   0  0  0  0  0  0  0  0  0  0  0  0
   -1.4757    1.1515    0.0000 C   0  0  0  0  0  0  0  0  0  0  0  0
   -2.1904    0.7389    0.0000 C   0  0  0  0  0  0  0  0  0  0  0  0
   -2.9051    1.1515    0.0000 N   0  0  0  0  0  0  0  0  0  0  0  0
   -1.4757    1.9767    0.0000 O   0  0  0  0  0  0  0  0  0  0  0  0
   -3.6197    0.7389    0.0000 C   0  0  0  0  0  0  0  0  0  0  0  0
   -4.2384    1.3103    0.0000 C   0  0  0  0  0  0  0  0  0  0  0  0
   -3.9077    2.0448    0.0000 C   0  0  0  0  0  0  0  0  0  0  0  0
   -3.0835    1.9525    0.0000 C   0  0  0  0  0  0  0  0  0  0  0  0
  2  1  2  0
  3  2  1  0
  4  3  2  0
  5  4  1  0
  6  5  2  0
  1  6  1  0
  6  7  1  0
  7  8  1  0
  8  9  1  0
  9 10  2  0
  5 10  1  0
  8 11  1  0
  8 12  1  0
  4 13  1  0
 13 14  1  0
 14 15  1  0
 15 16  2  0
  3 16  1  0
 14 17  2  0
  1 18  1  0
 18 19  1  0
 19 20  1  0
 20 21  1  0
 21 22  1  0
 20 23  1  0
 24 22  1  0
 24 25  1  0
 25 26  1  0
 27 26  1  0
 22 27  1  0
M  END
>  <chembl_id>  (99) 
CHEMBL5278367

$$$$
CHEMBL5290195
     RDKit          2D

 45 50  0  0  0  0  0  0  0  0999 V2000
    3.7648    1.4654    0.0000 O   0  0  0  0  0  0  0  0  0  0  0  0
    3.7648    0.6404    0.0000 C   0  0  0  0  0  0  0  0  0  0  0  0
    3.0504    0.2280    0.0000 C   0  0  0  0  0  0  0  0  0  0  0  0
    2.3360    0.6404    0.0000 C   0  0  0  0  0  0  0  0  0  0  0  0
    1.6215    0.2280    0.0000 C   0  0  0  0  0  0  0  0  0  0  0  0
    0.9069    0.6406    0.0000 C   0  0  0  0  0  0  0  0  0  0  0  0
    0.1940    0.2300    0.0000 C   0  0  0  0  0  0  0  0  0  0  0  0
    0.1940   -0.5950    0.0000 C   0  0  0  0  0  0  0  0  0  0  0  0
   -0.5204   -1.0074    0.0000 C   0  0  0  0  0  0  0  0  0  0  0  0
   -1.2349   -0.5950    0.0000 O   0  0  0  0  0  0  0  0  0  0  0  0
   -1.9493   -1.0074    0.0000 C   0  0  0  0  0  0  0  0  0  0  0  0
   -2.6637   -0.5950    0.0000 C   0  0  0  0  0  0  0  0  0  0  0  0
   -2.6637    0.2299    0.0000 O   0  0  0  0  0  0  0  0  0  0  0  0
   -3.3782   -1.0074    0.0000 N   0  0  0  0  0  0  0  0  0  0  0  0
   -4.0926   -0.5950    0.0000 C   0  0  0  0  0  0  0  0  0  0  0  0
   -4.0926    0.2292    0.0000 C   0  0  0  0  0  0  0  0  0  0  0  0
   -3.3782    0.6417    0.0000 C   0  0  0  0  0  0  0  0  0  0  0  0
   -4.8070    0.6413    0.0000 C   0  0  0  0  0  0  0  0  0  0  0  0
   -5.5213    0.2292    0.0000 C   0  0  0  0  0  0  0  0  0  0  0  0
   -6.2357    0.6413    0.0000 C   0  0  0  0  0  0  0  0  0  0  0  0
   -6.2357    1.4656    0.0000 C   0  0  0  0  0  0  0  0  0  0  0  0
   -5.5213    1.8778    0.0000 C   0  0  0  0  0  0  0  0  0  0  0  0
   -4.8070    1.4656    0.0000 C   0  0  0  0  0  0  0  0  0  0  0  0
   -6.9502    1.8781    0.0000 C   0  0  0  0  0  0  0  0  0  0  0  0
   -7.0325    0.4215    0.0000 C   0  0  0  0  0  0  0  0  0  0  0  0
   -7.3347   -0.3477    0.0000 C   0  0  0  0  0  0  0  0  0  0  0  0
   -6.9226   -1.0620    0.0000 C   0  0  0  0  0  0  0  0  0  0  0  0
   -6.8127   -0.3202    0.0000 O   0  0  0  0  0  0  0  0  0  0  0  0
   -6.2631    0.1743    0.0000 O   0  0  0  0  0  0  0  0  0  0  0  0
   -7.0435   -1.8781    0.0000 C   0  0  0  0  0  0  0  0  0  0  0  0
   -6.0984   -1.1720    0.0000 O   0  0  0  0  0  0  0  0  0  0  0  0
   -5.5213   -0.5950    0.0000 C   0  0  0  0  0  0  0  0  0  0  0  0
   -4.8070   -1.0071    0.0000 O   0  0  0  0  0  0  0  0  0  0  0  0
    0.9114   -1.0092    0.0000 C   0  0  0  0  0  0  0  0  0  0  0  0
    1.6215   -0.5928    0.0000 C   0  0  0  0  0  0  0  0  0  0  0  0
    4.4793    0.2280    0.0000 C   0  0  0  0  0  0  0  0  0  0  0  0
    4.4793   -0.6005    0.0000 C   0  0  0  0  0  0  0  0  0  0  0  0
    5.1957   -1.0086    0.0000 C   0  0  0  0  0  0  0  0  0  0  0  0
    5.9058   -0.5968    0.0000 C   0  0  0  0  0  0  0  0  0  0  0  0
    5.9058    0.2283    0.0000 C   0  0  0  0  0  0  0  0  0  0  0  0
    5.1939    0.6402    0.0000 C   0  0  0  0  0  0  0  0  0  0  0  0
    6.6202   -1.0093    0.0000 C   0  0  0  0  0  0  0  0  0  0  0  0
    7.3347   -0.5968    0.0000 F   0  0  0  0  0  0  0  0  0  0  0  0
    6.6202   -1.8342    0.0000 F   0  0  0  0  0  0  0  0  0  0  0  0
    7.3347   -1.4217    0.0000 F   0  0  0  0  0  0  0  0  0  0  0  0
  2  1  2  0
  3  2  1  0
  4  3  2  0
  5  4  1  0
  5  6  2  0
  6  7  1  0
  7  8  2  0
  9  8  1  0
 10  9  1  0
 11 10  1  0
 12 11  1  0
 12 13  2  0
 14 12  1  0
 15 14  1  1
 15 16  1  0
 16 17  1  1
 16 18  1  0
 19 18  1  0
 20 19  1  0
 20 21  1  0
 22 21  1  0
 23 22  1  0
 18 23  1  1
 21 24  1  6
 20 25  1  1
 25 26  1  0
 26 27  1  0
 27 28  1  0
 28 29  1  0
 19 29  1  6
 27 30  1  6
 27 31  1  0
 32 31  1  0
 19 32  1  0
 32 33  1  6
 33 15  1  0
  8 34  1  0
 34 35  2  0
 35  5  1  0
  2 36  1  0
 36 37  2  0
 37 38  1  0
 38 39  2  0
 39 40  1  0
 40 41  2  0
 41 36  1  0
 39 42  1  0
 42 43  1  0
 42 44  1  0
 42 45  1  0
M  END
>  <chembl_id>  (100) 
CHEMBL5290195

$$$$
